THERMO 
   300.0   1000.0   3000.0
   
! LIQUID SPECIES
!POLYMER

N2                ATcT3EN   2    0    0    0G    200.00   6000.00 1000.00      1	! [Ghobad] N2 <g> ATcT ver. 1.122, DHf298 = 0.000 ± 0.000 kJ/mol - fit MAR17
 2.93802970E+00 1.41838030E-03-5.03281045E-07 8.07555464E-11-4.76064275E-15    2
-9.17180990E+02 5.95521985E+00 3.53603521E+00-1.58270944E-04-4.26984251E-07    3
 2.37542590E-09-1.39708206E-12-1.04749645E+03 2.94603724E+00 0.00000000E+00    4
HE                ATcT3EHe  1    0    0    0G    200.00   6000.00 1000.00      1	! [Ghobad] He <g> ATcT ver. 1.122, DHf298 = 0.000 ± 0.000 kJ/mol - fit MAR17
 2.49985609E+00 2.19365392E-07-1.07525085E-10 2.07198041E-14-1.39358612E-18    2
-7.45309155E+02 9.29535014E-01 2.49976293E+00 1.01013432E-06-8.24578465E-10    3
-6.85983306E-13 7.24751856E-16-7.45340917E+02 9.29800315E-01 0.00000000E+00    4
C2H4                    C   2H   4          G    300.00   4000.00 1000.00      1
 .399182724E+01 .104833908E-01-.371721342E-05 .594628366E-09-.353630386E-13    2
 .426865851E+04-.269081762E+00 .395920063E+01-.757051373E-02 .570989993E-04    3
-.691588352E-07 .269884190E-10 .508977598E+04 .409730213E+01                   4
C3H6       8/12/15      C   3H   6    0    0G   298.000  6000.000 1000.000    01
 6.59032304E+00 1.52592866E-02-5.30369441E-06 8.35510888E-10-4.91215549E-14    2
-2.47481113E+02-1.15748238E+01-1.54606737E+00 4.36553128E-02-5.61392417E-05    3
 4.98421927E-08-1.84798923E-11 2.07056233E+03 2.99232495E+01                   4
C3H8                    C   3H   8          G    300.00   4000.00 1000.00      1
 .666919760E+01 .206108751E-01-.736512349E-05 .118434262E-08-.706914630E-13    2
-.162754066E+05-.131943379E+02 .421093013E+01 .170886504E-02 .706530164E-04    3
-.920060565E-07 .364618453E-10-.143810883E+05 .561004451E+01                   4
C4H6  1,3-butadienT05/04C  4.H  6.   0.   0.G   200.000  6000.000 1000.        1  !Burcat MP
 7.62637466E+00 1.72523403E-02-6.09184911E-06 9.70800102E-10-5.76169721E-14    2
 9.55306395E+03-1.48325259E+01 4.10599669E+00 5.05575563E-03 5.83885454E-05    3
-8.05950198E-08 3.27447711E-11 1.15092468E+04 8.42978067E+00 1.33302095E+04    4
NC7H14                  C   7H  14          G    300.00   4000.00 1390.00      1
 .206190401E+02 .314852991E-01-.107162057E-04 .165827662E-08-.959911785E-13    2
-.196710875E+05-.822507478E+02-.116533279E+01 .790439806E-01-.496101666E-04    3
 .158569009E-07-.205346433E-11-.117362359E+05 .359871070E+02                   4
C16H32                  C  16H  32O   0N   0G    200.00   2000.00  742.74      1
 5.01005140E+00 1.61703141E-01-2.34200777E-05-5.46456992E-08 2.34858258E-11    2
-4.32617247E+04 3.12334198E+01 5.01005140E+00 1.61703141E-01-2.34200777E-05    3
-5.46456992E-08 2.34858258E-11-4.32617247E+04 3.12334198E+01                   4 
C30H60(L)               C  30H  60O   0N   0G    200.00   2000.00  856.36      1
 1.03845804E+01 2.79348649E-01-1.76960748E-05-1.19594176E-07 4.84705319E-11    2
-8.46555678E+04 3.53238223E+01 1.41070248E+02-6.48616217E-01 3.08152817E-03    3
-4.84442348E-06 2.77124998E-09-1.20638944E+05-5.65891637E+02                   4 
C30H60                  C  30H  60O   0N   0G    200.00   2000.00  856.36      1
 1.03845804E+01 2.79348649E-01-1.76960748E-05-1.19594176E-07 4.84705319E-11    2
-8.46555678E+04 3.53238223E+01 1.03845804E+01 2.79348649E-01-1.76960748E-05    3
-1.19594176E-07 4.84705319E-11-8.46555678E+04 3.53238223E+01                   4 
P-C40H80-P_S(L)         C  40H  80O   0N   0G    200.00   2000.00 1500.00      1
 4.25202515E+01-2.51261932E-01 2.30043631E-03-2.60497826E-06 8.51521664E-10    2
-1.57059596E+05-1.35540544E+02 4.25202515E+01-2.51261932E-01 2.30043631E-03    3
-2.60497826E-06 8.51521664E-10-1.57059596E+05-1.35540544E+02                   4 
P-C40H80-P_S            C  40H  80O   0N   0G    200.00   2000.00 1500.00      1
 4.25202515E+01-2.51261932E-01 2.30043631E-03-2.60497826E-06 8.51521664E-10    2
-1.57059596E+05-1.35540544E+02 4.25202515E+01-2.51261932E-01 2.30043631E-03    3
-2.60497826E-06 8.51521664E-10-1.57059596E+05-1.35540544E+02                   4 
P-C40H80-P(L)           C  40H  80O   0N   0G    200.00   2000.00 1831.88      1
 7.86889034E+01 1.88397300E-01 1.19469973E-04-2.02748483E-07 6.84687305E-11    2
-1.54222246E+05-3.29028799E+02 7.86889034E+01 1.88397300E-01 1.19469973E-04    3
-2.02748483E-07 6.84687305E-11-1.54222246E+05-3.29028799E+02                   4 
P-C40H80-P              C  40H  80O   0N   0G    200.00   2000.00 1831.88      1
 7.86889034E+01 1.88397300E-01 1.19469973E-04-2.02748483E-07 6.84687305E-11    2
-1.54222246E+05-3.29028799E+02 7.86889034E+01 1.88397300E-01 1.19469973E-04    3
-2.02748483E-07 6.84687305E-11-1.54222246E+05-3.29028799E+02                   4 
 
END
