ELEMENTS
C H O N HE
END
SPECIES

N2	HE

!MID-CHAINS
 P-IC21H42-P P-IC21H41-P 

!END-CHAINS
 P-IC21H43t  P-IC21H43h  P-IC21H41t  P-IC21H41h  P-IC21H42t  
 P-IC21H42t_T P-IC21H42h  P-IC21H42h_T P-IC21H40t  P-IC21H40t_A 
 P-IC21H40h  P-IC21H40h_A 

!unreactive LMW
 C2H6        C3H8        IC4H10      NC5H12      IC6H14      
 IC7H16      IC8H18      IC9H20      IC10H22     C3H6        
 IC4H8       C5H10_2     IC6H12      IC7H14      IC8H16      
 IC9H18      IC10H20     IC6H10      IC7H12      IC8H14      
 IC9H16      IC10H18     

!stable LLMW
 IC17H36         IC18H38         IC19H40         IC26H54         IC27H56         IC28H58         IC35H72         IC36H74         IC37H76        
 IC17H34         IC18H36         IC19H38         IC26H52         IC27H54         IC28H56         IC35H70         IC36H72         IC37H74        
 IC17H32         IC18H34         IC19H36         IC26H50         IC27H52         IC28H54         IC35H68         IC36H70         IC37H72        

!radicals LLMW
 IC17H35         IC18H37         IC19H39         IC26H53         IC27H55         IC28H57         IC35H71         IC36H73         IC37H75        
 IC17H35_T       IC18H37_T       IC19H39_T       IC26H53_T       IC27H55_T       IC28H57_T       IC35H71_T       IC36H73_T       IC37H75_T      
 IC17H33         IC18H35         IC19H37         IC26H51         IC27H53         IC28H55         IC35H69         IC36H71         IC37H73        
 IC17H33_T       IC18H35_T       IC19H37_T       IC26H51_T       IC27H53_T       IC28H55_T       IC35H69_T       IC36H71_T       IC37H73_T      
 IC17H33_A       IC18H35_A       IC19H37_A       IC26H51_A       IC27H53_A       IC28H55_A       IC35H69_A       IC36H71_A       IC37H73_A      
 IC17H31         IC18H33         IC19H35         IC26H49         IC27H51         IC28H53         IC35H67         IC36H69         IC37H71        
 IC17H31_A       IC18H33_A       IC19H35_A       IC26H49_A       IC27H51_A       IC28H53_A       IC35H67_A       IC36H69_A       IC37H71_A      

END

REACTIONS
!***************************************!
!	Random Scission
!***************************************!


!!!!!!!!!!  Small Reactive  !!!!!!!!!!

!!         IC17H36(L)         !!
3.6666667IC17H32+7.3333333IC17H34+12.6666667IC17H36=>3.6666667IC17H31+7.3333333IC17H33+3.6666667IC17H35+2.0NC5H12+4.0IC8H18+2.0IC17H35_T+2.0C3H8+2.0IC6H14+3.6666667IC9H20+1.3333333IC18H37_T+C2H6 4.92e+10 1.00 73000
	FORD/IC17H32 0/
	FORD/IC17H34 0/
	FORD/IC17H36 2/
3.6666667IC18H34+7.3333333IC18H36+3.6666667IC18H38+9.0IC17H36=>3.6666667IC18H33+7.3333333IC18H35+3.6666667IC18H37+2.0NC5H12+4.0IC8H18+2.0IC17H35_T+2.0C3H8+2.0IC6H14+3.6666667IC9H20+1.3333333IC18H37_T+C2H6 4.92e+10 1.00 73000
	FORD/IC18H34 0/
	FORD/IC18H36 0/
	FORD/IC18H38 1/
	FORD/IC17H36 1/
3.6666667IC19H36+7.3333333IC19H38+3.6666667IC19H40+9.0IC17H36=>3.6666667IC19H35+7.3333333IC19H37+3.6666667IC19H39+2.0NC5H12+4.0IC8H18+2.0IC17H35_T+2.0C3H8+2.0IC6H14+3.6666667IC9H20+1.3333333IC18H37_T+C2H6 4.92e+10 1.00 73000
	FORD/IC19H36 0/
	FORD/IC19H38 0/
	FORD/IC19H40 1/
	FORD/IC17H36 1/
3.6666667IC26H50+7.3333333IC26H52+3.6666667IC26H54+9.0IC17H36=>3.6666667IC26H49+7.3333333IC26H51+3.6666667IC26H53+2.0NC5H12+4.0IC8H18+2.0IC17H35_T+2.0C3H8+2.0IC6H14+3.6666667IC9H20+1.3333333IC18H37_T+C2H6 4.92e+10 1.00 73000
	FORD/IC26H50 0/
	FORD/IC26H52 0/
	FORD/IC26H54 1/
	FORD/IC17H36 1/
3.6666667IC27H52+7.3333333IC27H54+3.6666667IC27H56+9.0IC17H36=>3.6666667IC27H51+7.3333333IC27H53+3.6666667IC27H55+2.0NC5H12+4.0IC8H18+2.0IC17H35_T+2.0C3H8+2.0IC6H14+3.6666667IC9H20+1.3333333IC18H37_T+C2H6 4.92e+10 1.00 73000
	FORD/IC27H52 0/
	FORD/IC27H54 0/
	FORD/IC27H56 1/
	FORD/IC17H36 1/
3.6666667IC28H54+7.3333333IC28H56+3.6666667IC28H58+9.0IC17H36=>3.6666667IC28H53+7.3333333IC28H55+3.6666667IC28H57+2.0NC5H12+4.0IC8H18+2.0IC17H35_T+2.0C3H8+2.0IC6H14+3.6666667IC9H20+1.3333333IC18H37_T+C2H6 4.92e+10 1.00 73000
	FORD/IC28H54 0/
	FORD/IC28H56 0/
	FORD/IC28H58 1/
	FORD/IC17H36 1/
3.6666667IC35H68+7.3333333IC35H70+3.6666667IC35H72+9.0IC17H36=>3.6666667IC35H67+7.3333333IC35H69+3.6666667IC35H71+2.0NC5H12+4.0IC8H18+2.0IC17H35_T+2.0C3H8+2.0IC6H14+3.6666667IC9H20+1.3333333IC18H37_T+C2H6 4.92e+10 1.00 73000
	FORD/IC35H68 0/
	FORD/IC35H70 0/
	FORD/IC35H72 1/
	FORD/IC17H36 1/
3.6666667IC36H70+7.3333333IC36H72+3.6666667IC36H74+9.0IC17H36=>3.6666667IC36H69+7.3333333IC36H71+3.6666667IC36H73+2.0NC5H12+4.0IC8H18+2.0IC17H35_T+2.0C3H8+2.0IC6H14+3.6666667IC9H20+1.3333333IC18H37_T+C2H6 4.92e+10 1.00 73000
	FORD/IC36H70 0/
	FORD/IC36H72 0/
	FORD/IC36H74 1/
	FORD/IC17H36 1/
3.6666667IC37H72+7.3333333IC37H74+3.6666667IC37H76+9.0IC17H36=>3.6666667IC37H71+7.3333333IC37H73+3.6666667IC37H75+2.0NC5H12+4.0IC8H18+2.0IC17H35_T+2.0C3H8+2.0IC6H14+3.6666667IC9H20+1.3333333IC18H37_T+C2H6 4.92e+10 1.00 73000
	FORD/IC37H72 0/
	FORD/IC37H74 0/
	FORD/IC37H76 1/
	FORD/IC17H36 1/
!!         IC17H34(L)         !!
3.3333333IC17H32+14.6666667IC17H34+3.3333333IC17H36=>3.3333333IC17H31+6.6666667IC17H33+3.3333333IC17H35+C5H10_2+2.0IC8H16+IC17H33_T+C3H8+IC6H14+1.6666667IC9H20+0.3333333IC18H37_T+IC6H12+2.0IC9H18+IC18H35_T+C2H6+NC5H12+1.6666667IC8H18+0.3333333IC17H35_T 4.92e+10 1.00 73000
	FORD/IC17H32 0/
	FORD/IC17H34 1/
	FORD/IC17H36 1/
3.3333333IC18H34+6.6666667IC18H36+3.3333333IC18H38+8.0IC17H34=>3.3333333IC18H33+6.6666667IC18H35+3.3333333IC18H37+C5H10_2+2.0IC8H16+IC17H33_T+C3H8+IC6H14+1.6666667IC9H20+0.3333333IC18H37_T+IC6H12+2.0IC9H18+IC18H35_T+C2H6+NC5H12+1.6666667IC8H18+0.3333333IC17H35_T 4.92e+10 1.00 73000
	FORD/IC18H34 0/
	FORD/IC18H36 0/
	FORD/IC18H38 1/
	FORD/IC17H34 1/
3.3333333IC19H36+6.6666667IC19H38+3.3333333IC19H40+8.0IC17H34=>3.3333333IC19H35+6.6666667IC19H37+3.3333333IC19H39+C5H10_2+2.0IC8H16+IC17H33_T+C3H8+IC6H14+1.6666667IC9H20+0.3333333IC18H37_T+IC6H12+2.0IC9H18+IC18H35_T+C2H6+NC5H12+1.6666667IC8H18+0.3333333IC17H35_T 4.92e+10 1.00 73000
	FORD/IC19H36 0/
	FORD/IC19H38 0/
	FORD/IC19H40 1/
	FORD/IC17H34 1/
3.3333333IC26H50+6.6666667IC26H52+3.3333333IC26H54+8.0IC17H34=>3.3333333IC26H49+6.6666667IC26H51+3.3333333IC26H53+C5H10_2+2.0IC8H16+IC17H33_T+C3H8+IC6H14+1.6666667IC9H20+0.3333333IC18H37_T+IC6H12+2.0IC9H18+IC18H35_T+C2H6+NC5H12+1.6666667IC8H18+0.3333333IC17H35_T 4.92e+10 1.00 73000
	FORD/IC26H50 0/
	FORD/IC26H52 0/
	FORD/IC26H54 1/
	FORD/IC17H34 1/
3.3333333IC27H52+6.6666667IC27H54+3.3333333IC27H56+8.0IC17H34=>3.3333333IC27H51+6.6666667IC27H53+3.3333333IC27H55+C5H10_2+2.0IC8H16+IC17H33_T+C3H8+IC6H14+1.6666667IC9H20+0.3333333IC18H37_T+IC6H12+2.0IC9H18+IC18H35_T+C2H6+NC5H12+1.6666667IC8H18+0.3333333IC17H35_T 4.92e+10 1.00 73000
	FORD/IC27H52 0/
	FORD/IC27H54 0/
	FORD/IC27H56 1/
	FORD/IC17H34 1/
3.3333333IC28H54+6.6666667IC28H56+3.3333333IC28H58+8.0IC17H34=>3.3333333IC28H53+6.6666667IC28H55+3.3333333IC28H57+C5H10_2+2.0IC8H16+IC17H33_T+C3H8+IC6H14+1.6666667IC9H20+0.3333333IC18H37_T+IC6H12+2.0IC9H18+IC18H35_T+C2H6+NC5H12+1.6666667IC8H18+0.3333333IC17H35_T 4.92e+10 1.00 73000
	FORD/IC28H54 0/
	FORD/IC28H56 0/
	FORD/IC28H58 1/
	FORD/IC17H34 1/
3.3333333IC35H68+6.6666667IC35H70+3.3333333IC35H72+8.0IC17H34=>3.3333333IC35H67+6.6666667IC35H69+3.3333333IC35H71+C5H10_2+2.0IC8H16+IC17H33_T+C3H8+IC6H14+1.6666667IC9H20+0.3333333IC18H37_T+IC6H12+2.0IC9H18+IC18H35_T+C2H6+NC5H12+1.6666667IC8H18+0.3333333IC17H35_T 4.92e+10 1.00 73000
	FORD/IC35H68 0/
	FORD/IC35H70 0/
	FORD/IC35H72 1/
	FORD/IC17H34 1/
3.3333333IC36H70+6.6666667IC36H72+3.3333333IC36H74+8.0IC17H34=>3.3333333IC36H69+6.6666667IC36H71+3.3333333IC36H73+C5H10_2+2.0IC8H16+IC17H33_T+C3H8+IC6H14+1.6666667IC9H20+0.3333333IC18H37_T+IC6H12+2.0IC9H18+IC18H35_T+C2H6+NC5H12+1.6666667IC8H18+0.3333333IC17H35_T 4.92e+10 1.00 73000
	FORD/IC36H70 0/
	FORD/IC36H72 0/
	FORD/IC36H74 1/
	FORD/IC17H34 1/
3.3333333IC37H72+6.6666667IC37H74+3.3333333IC37H76+8.0IC17H34=>3.3333333IC37H71+6.6666667IC37H73+3.3333333IC37H75+C5H10_2+2.0IC8H16+IC17H33_T+C3H8+IC6H14+1.6666667IC9H20+0.3333333IC18H37_T+IC6H12+2.0IC9H18+IC18H35_T+C2H6+NC5H12+1.6666667IC8H18+0.3333333IC17H35_T 4.92e+10 1.00 73000
	FORD/IC37H72 0/
	FORD/IC37H74 0/
	FORD/IC37H76 1/
	FORD/IC17H34 1/
!!         IC17H32(L)         !!
8.6666667IC17H32+5.3333333IC17H34+2.6666667IC17H36=>2.6666667IC17H31+5.3333333IC17H33+2.6666667IC17H35+2.0C5H10_2+3.3333333IC8H16+0.6666667IC17H33_T+2.0IC6H12+3.3333333IC9H18+0.6666667IC18H35_T 4.92e+10 1.00 73000
	FORD/IC17H32 1/
	FORD/IC17H34 0/
	FORD/IC17H36 1/
2.6666667IC18H34+5.3333333IC18H36+2.6666667IC18H38+6.0IC17H32=>2.6666667IC18H33+5.3333333IC18H35+2.6666667IC18H37+2.0C5H10_2+3.3333333IC8H16+0.6666667IC17H33_T+2.0IC6H12+3.3333333IC9H18+0.6666667IC18H35_T 4.92e+10 1.00 73000
	FORD/IC18H34 0/
	FORD/IC18H36 0/
	FORD/IC18H38 1/
	FORD/IC17H32 1/
2.6666667IC19H36+5.3333333IC19H38+2.6666667IC19H40+6.0IC17H32=>2.6666667IC19H35+5.3333333IC19H37+2.6666667IC19H39+2.0C5H10_2+3.3333333IC8H16+0.6666667IC17H33_T+2.0IC6H12+3.3333333IC9H18+0.6666667IC18H35_T 4.92e+10 1.00 73000
	FORD/IC19H36 0/
	FORD/IC19H38 0/
	FORD/IC19H40 1/
	FORD/IC17H32 1/
2.6666667IC26H50+5.3333333IC26H52+2.6666667IC26H54+6.0IC17H32=>2.6666667IC26H49+5.3333333IC26H51+2.6666667IC26H53+2.0C5H10_2+3.3333333IC8H16+0.6666667IC17H33_T+2.0IC6H12+3.3333333IC9H18+0.6666667IC18H35_T 4.92e+10 1.00 73000
	FORD/IC26H50 0/
	FORD/IC26H52 0/
	FORD/IC26H54 1/
	FORD/IC17H32 1/
2.6666667IC27H52+5.3333333IC27H54+2.6666667IC27H56+6.0IC17H32=>2.6666667IC27H51+5.3333333IC27H53+2.6666667IC27H55+2.0C5H10_2+3.3333333IC8H16+0.6666667IC17H33_T+2.0IC6H12+3.3333333IC9H18+0.6666667IC18H35_T 4.92e+10 1.00 73000
	FORD/IC27H52 0/
	FORD/IC27H54 0/
	FORD/IC27H56 1/
	FORD/IC17H32 1/
2.6666667IC28H54+5.3333333IC28H56+2.6666667IC28H58+6.0IC17H32=>2.6666667IC28H53+5.3333333IC28H55+2.6666667IC28H57+2.0C5H10_2+3.3333333IC8H16+0.6666667IC17H33_T+2.0IC6H12+3.3333333IC9H18+0.6666667IC18H35_T 4.92e+10 1.00 73000
	FORD/IC28H54 0/
	FORD/IC28H56 0/
	FORD/IC28H58 1/
	FORD/IC17H32 1/
2.6666667IC35H68+5.3333333IC35H70+2.6666667IC35H72+6.0IC17H32=>2.6666667IC35H67+5.3333333IC35H69+2.6666667IC35H71+2.0C5H10_2+3.3333333IC8H16+0.6666667IC17H33_T+2.0IC6H12+3.3333333IC9H18+0.6666667IC18H35_T 4.92e+10 1.00 73000
	FORD/IC35H68 0/
	FORD/IC35H70 0/
	FORD/IC35H72 1/
	FORD/IC17H32 1/
2.6666667IC36H70+5.3333333IC36H72+2.6666667IC36H74+6.0IC17H32=>2.6666667IC36H69+5.3333333IC36H71+2.6666667IC36H73+2.0C5H10_2+3.3333333IC8H16+0.6666667IC17H33_T+2.0IC6H12+3.3333333IC9H18+0.6666667IC18H35_T 4.92e+10 1.00 73000
	FORD/IC36H70 0/
	FORD/IC36H72 0/
	FORD/IC36H74 1/
	FORD/IC17H32 1/
2.6666667IC37H72+5.3333333IC37H74+2.6666667IC37H76+6.0IC17H32=>2.6666667IC37H71+5.3333333IC37H73+2.6666667IC37H75+2.0C5H10_2+3.3333333IC8H16+0.6666667IC17H33_T+2.0IC6H12+3.3333333IC9H18+0.6666667IC18H35_T 4.92e+10 1.00 73000
	FORD/IC37H72 0/
	FORD/IC37H74 0/
	FORD/IC37H76 1/
	FORD/IC17H32 1/
!!         IC18H38(L)         !!
4.0IC17H32+8.0IC17H34+4.0IC17H36+10.0IC18H38=>4.0IC17H31+8.0IC17H33+4.0IC17H35+2.0C3H8+2.0IC6H14+4.0IC9H20+2.0IC18H37_T+IC4H10+IC7H16+2.0IC10H22+IC19H39_T+C2H6+NC5H12+2.0IC8H18+IC17H35_T 4.92e+10 1.00 73000
	FORD/IC17H32 0/
	FORD/IC17H34 0/
	FORD/IC17H36 1/
	FORD/IC18H38 1/
4.0IC18H34+8.0IC18H36+14.0IC18H38=>4.0IC18H33+8.0IC18H35+4.0IC18H37+2.0C3H8+2.0IC6H14+4.0IC9H20+2.0IC18H37_T+IC4H10+IC7H16+2.0IC10H22+IC19H39_T+C2H6+NC5H12+2.0IC8H18+IC17H35_T 4.92e+10 1.00 73000
	FORD/IC18H34 0/
	FORD/IC18H36 0/
	FORD/IC18H38 2/
4.0IC19H36+8.0IC19H38+4.0IC19H40+10.0IC18H38=>4.0IC19H35+8.0IC19H37+4.0IC19H39+2.0C3H8+2.0IC6H14+4.0IC9H20+2.0IC18H37_T+IC4H10+IC7H16+2.0IC10H22+IC19H39_T+C2H6+NC5H12+2.0IC8H18+IC17H35_T 4.92e+10 1.00 73000
	FORD/IC19H36 0/
	FORD/IC19H38 0/
	FORD/IC19H40 1/
	FORD/IC18H38 1/
4.0IC26H50+8.0IC26H52+4.0IC26H54+10.0IC18H38=>4.0IC26H49+8.0IC26H51+4.0IC26H53+2.0C3H8+2.0IC6H14+4.0IC9H20+2.0IC18H37_T+IC4H10+IC7H16+2.0IC10H22+IC19H39_T+C2H6+NC5H12+2.0IC8H18+IC17H35_T 4.92e+10 1.00 73000
	FORD/IC26H50 0/
	FORD/IC26H52 0/
	FORD/IC26H54 1/
	FORD/IC18H38 1/
4.0IC27H52+8.0IC27H54+4.0IC27H56+10.0IC18H38=>4.0IC27H51+8.0IC27H53+4.0IC27H55+2.0C3H8+2.0IC6H14+4.0IC9H20+2.0IC18H37_T+IC4H10+IC7H16+2.0IC10H22+IC19H39_T+C2H6+NC5H12+2.0IC8H18+IC17H35_T 4.92e+10 1.00 73000
	FORD/IC27H52 0/
	FORD/IC27H54 0/
	FORD/IC27H56 1/
	FORD/IC18H38 1/
4.0IC28H54+8.0IC28H56+4.0IC28H58+10.0IC18H38=>4.0IC28H53+8.0IC28H55+4.0IC28H57+2.0C3H8+2.0IC6H14+4.0IC9H20+2.0IC18H37_T+IC4H10+IC7H16+2.0IC10H22+IC19H39_T+C2H6+NC5H12+2.0IC8H18+IC17H35_T 4.92e+10 1.00 73000
	FORD/IC28H54 0/
	FORD/IC28H56 0/
	FORD/IC28H58 1/
	FORD/IC18H38 1/
4.0IC35H68+8.0IC35H70+4.0IC35H72+10.0IC18H38=>4.0IC35H67+8.0IC35H69+4.0IC35H71+2.0C3H8+2.0IC6H14+4.0IC9H20+2.0IC18H37_T+IC4H10+IC7H16+2.0IC10H22+IC19H39_T+C2H6+NC5H12+2.0IC8H18+IC17H35_T 4.92e+10 1.00 73000
	FORD/IC35H68 0/
	FORD/IC35H70 0/
	FORD/IC35H72 1/
	FORD/IC18H38 1/
4.0IC36H70+8.0IC36H72+4.0IC36H74+10.0IC18H38=>4.0IC36H69+8.0IC36H71+4.0IC36H73+2.0C3H8+2.0IC6H14+4.0IC9H20+2.0IC18H37_T+IC4H10+IC7H16+2.0IC10H22+IC19H39_T+C2H6+NC5H12+2.0IC8H18+IC17H35_T 4.92e+10 1.00 73000
	FORD/IC36H70 0/
	FORD/IC36H72 0/
	FORD/IC36H74 1/
	FORD/IC18H38 1/
4.0IC37H72+8.0IC37H74+4.0IC37H76+10.0IC18H38=>4.0IC37H71+8.0IC37H73+4.0IC37H75+2.0C3H8+2.0IC6H14+4.0IC9H20+2.0IC18H37_T+IC4H10+IC7H16+2.0IC10H22+IC19H39_T+C2H6+NC5H12+2.0IC8H18+IC17H35_T 4.92e+10 1.00 73000
	FORD/IC37H72 0/
	FORD/IC37H74 0/
	FORD/IC37H76 1/
	FORD/IC18H38 1/
!!         IC18H36(L)         !!
3.3333333IC17H32+6.6666667IC17H34+3.3333333IC17H36+8.0IC18H36=>3.3333333IC17H31+6.6666667IC17H33+3.3333333IC17H35+IC6H12+2.0IC9H18+IC18H35_T+C3H8+IC6H14+1.6666667IC9H20+0.3333333IC18H37_T+IC7H14+2.0IC10H20+IC19H37_T+C2H6+NC5H12+1.6666667IC8H18+0.3333333IC17H35_T 4.92e+10 1.00 73000
	FORD/IC17H32 0/
	FORD/IC17H34 0/
	FORD/IC17H36 1/
	FORD/IC18H36 1/
3.3333333IC18H34+14.6666667IC18H36+3.3333333IC18H38=>3.3333333IC18H33+6.6666667IC18H35+3.3333333IC18H37+IC6H12+2.0IC9H18+IC18H35_T+C3H8+IC6H14+1.6666667IC9H20+0.3333333IC18H37_T+IC7H14+2.0IC10H20+IC19H37_T+C2H6+NC5H12+1.6666667IC8H18+0.3333333IC17H35_T 4.92e+10 1.00 73000
	FORD/IC18H34 0/
	FORD/IC18H36 1/
	FORD/IC18H38 1/
3.3333333IC19H36+6.6666667IC19H38+3.3333333IC19H40+8.0IC18H36=>3.3333333IC19H35+6.6666667IC19H37+3.3333333IC19H39+IC6H12+2.0IC9H18+IC18H35_T+C3H8+IC6H14+1.6666667IC9H20+0.3333333IC18H37_T+IC7H14+2.0IC10H20+IC19H37_T+C2H6+NC5H12+1.6666667IC8H18+0.3333333IC17H35_T 4.92e+10 1.00 73000
	FORD/IC19H36 0/
	FORD/IC19H38 0/
	FORD/IC19H40 1/
	FORD/IC18H36 1/
3.3333333IC26H50+6.6666667IC26H52+3.3333333IC26H54+8.0IC18H36=>3.3333333IC26H49+6.6666667IC26H51+3.3333333IC26H53+IC6H12+2.0IC9H18+IC18H35_T+C3H8+IC6H14+1.6666667IC9H20+0.3333333IC18H37_T+IC7H14+2.0IC10H20+IC19H37_T+C2H6+NC5H12+1.6666667IC8H18+0.3333333IC17H35_T 4.92e+10 1.00 73000
	FORD/IC26H50 0/
	FORD/IC26H52 0/
	FORD/IC26H54 1/
	FORD/IC18H36 1/
3.3333333IC27H52+6.6666667IC27H54+3.3333333IC27H56+8.0IC18H36=>3.3333333IC27H51+6.6666667IC27H53+3.3333333IC27H55+IC6H12+2.0IC9H18+IC18H35_T+C3H8+IC6H14+1.6666667IC9H20+0.3333333IC18H37_T+IC7H14+2.0IC10H20+IC19H37_T+C2H6+NC5H12+1.6666667IC8H18+0.3333333IC17H35_T 4.92e+10 1.00 73000
	FORD/IC27H52 0/
	FORD/IC27H54 0/
	FORD/IC27H56 1/
	FORD/IC18H36 1/
3.3333333IC28H54+6.6666667IC28H56+3.3333333IC28H58+8.0IC18H36=>3.3333333IC28H53+6.6666667IC28H55+3.3333333IC28H57+IC6H12+2.0IC9H18+IC18H35_T+C3H8+IC6H14+1.6666667IC9H20+0.3333333IC18H37_T+IC7H14+2.0IC10H20+IC19H37_T+C2H6+NC5H12+1.6666667IC8H18+0.3333333IC17H35_T 4.92e+10 1.00 73000
	FORD/IC28H54 0/
	FORD/IC28H56 0/
	FORD/IC28H58 1/
	FORD/IC18H36 1/
3.3333333IC35H68+6.6666667IC35H70+3.3333333IC35H72+8.0IC18H36=>3.3333333IC35H67+6.6666667IC35H69+3.3333333IC35H71+IC6H12+2.0IC9H18+IC18H35_T+C3H8+IC6H14+1.6666667IC9H20+0.3333333IC18H37_T+IC7H14+2.0IC10H20+IC19H37_T+C2H6+NC5H12+1.6666667IC8H18+0.3333333IC17H35_T 4.92e+10 1.00 73000
	FORD/IC35H68 0/
	FORD/IC35H70 0/
	FORD/IC35H72 1/
	FORD/IC18H36 1/
3.3333333IC36H70+6.6666667IC36H72+3.3333333IC36H74+8.0IC18H36=>3.3333333IC36H69+6.6666667IC36H71+3.3333333IC36H73+IC6H12+2.0IC9H18+IC18H35_T+C3H8+IC6H14+1.6666667IC9H20+0.3333333IC18H37_T+IC7H14+2.0IC10H20+IC19H37_T+C2H6+NC5H12+1.6666667IC8H18+0.3333333IC17H35_T 4.92e+10 1.00 73000
	FORD/IC36H70 0/
	FORD/IC36H72 0/
	FORD/IC36H74 1/
	FORD/IC18H36 1/
3.3333333IC37H72+6.6666667IC37H74+3.3333333IC37H76+8.0IC18H36=>3.3333333IC37H71+6.6666667IC37H73+3.3333333IC37H75+IC6H12+2.0IC9H18+IC18H35_T+C3H8+IC6H14+1.6666667IC9H20+0.3333333IC18H37_T+IC7H14+2.0IC10H20+IC19H37_T+C2H6+NC5H12+1.6666667IC8H18+0.3333333IC17H35_T 4.92e+10 1.00 73000
	FORD/IC37H72 0/
	FORD/IC37H74 0/
	FORD/IC37H76 1/
	FORD/IC18H36 1/
!!         IC18H34(L)         !!
2.6666667IC17H32+5.3333333IC17H34+2.6666667IC17H36+6.0IC18H34=>2.6666667IC17H31+5.3333333IC17H33+2.6666667IC17H35+2.0IC6H12+3.3333333IC9H18+0.6666667IC18H35_T+IC7H14+1.6666667IC10H20+0.3333333IC19H37_T+C5H10_2+1.6666667IC8H16+0.3333333IC17H33_T 4.92e+10 1.00 73000
	FORD/IC17H32 0/
	FORD/IC17H34 0/
	FORD/IC17H36 1/
	FORD/IC18H34 1/
8.6666667IC18H34+5.3333333IC18H36+2.6666667IC18H38=>2.6666667IC18H33+5.3333333IC18H35+2.6666667IC18H37+2.0IC6H12+3.3333333IC9H18+0.6666667IC18H35_T+IC7H14+1.6666667IC10H20+0.3333333IC19H37_T+C5H10_2+1.6666667IC8H16+0.3333333IC17H33_T 4.92e+10 1.00 73000
	FORD/IC18H34 1/
	FORD/IC18H36 0/
	FORD/IC18H38 1/
2.6666667IC19H36+5.3333333IC19H38+2.6666667IC19H40+6.0IC18H34=>2.6666667IC19H35+5.3333333IC19H37+2.6666667IC19H39+2.0IC6H12+3.3333333IC9H18+0.6666667IC18H35_T+IC7H14+1.6666667IC10H20+0.3333333IC19H37_T+C5H10_2+1.6666667IC8H16+0.3333333IC17H33_T 4.92e+10 1.00 73000
	FORD/IC19H36 0/
	FORD/IC19H38 0/
	FORD/IC19H40 1/
	FORD/IC18H34 1/
2.6666667IC26H50+5.3333333IC26H52+2.6666667IC26H54+6.0IC18H34=>2.6666667IC26H49+5.3333333IC26H51+2.6666667IC26H53+2.0IC6H12+3.3333333IC9H18+0.6666667IC18H35_T+IC7H14+1.6666667IC10H20+0.3333333IC19H37_T+C5H10_2+1.6666667IC8H16+0.3333333IC17H33_T 4.92e+10 1.00 73000
	FORD/IC26H50 0/
	FORD/IC26H52 0/
	FORD/IC26H54 1/
	FORD/IC18H34 1/
2.6666667IC27H52+5.3333333IC27H54+2.6666667IC27H56+6.0IC18H34=>2.6666667IC27H51+5.3333333IC27H53+2.6666667IC27H55+2.0IC6H12+3.3333333IC9H18+0.6666667IC18H35_T+IC7H14+1.6666667IC10H20+0.3333333IC19H37_T+C5H10_2+1.6666667IC8H16+0.3333333IC17H33_T 4.92e+10 1.00 73000
	FORD/IC27H52 0/
	FORD/IC27H54 0/
	FORD/IC27H56 1/
	FORD/IC18H34 1/
2.6666667IC28H54+5.3333333IC28H56+2.6666667IC28H58+6.0IC18H34=>2.6666667IC28H53+5.3333333IC28H55+2.6666667IC28H57+2.0IC6H12+3.3333333IC9H18+0.6666667IC18H35_T+IC7H14+1.6666667IC10H20+0.3333333IC19H37_T+C5H10_2+1.6666667IC8H16+0.3333333IC17H33_T 4.92e+10 1.00 73000
	FORD/IC28H54 0/
	FORD/IC28H56 0/
	FORD/IC28H58 1/
	FORD/IC18H34 1/
2.6666667IC35H68+5.3333333IC35H70+2.6666667IC35H72+6.0IC18H34=>2.6666667IC35H67+5.3333333IC35H69+2.6666667IC35H71+2.0IC6H12+3.3333333IC9H18+0.6666667IC18H35_T+IC7H14+1.6666667IC10H20+0.3333333IC19H37_T+C5H10_2+1.6666667IC8H16+0.3333333IC17H33_T 4.92e+10 1.00 73000
	FORD/IC35H68 0/
	FORD/IC35H70 0/
	FORD/IC35H72 1/
	FORD/IC18H34 1/
2.6666667IC36H70+5.3333333IC36H72+2.6666667IC36H74+6.0IC18H34=>2.6666667IC36H69+5.3333333IC36H71+2.6666667IC36H73+2.0IC6H12+3.3333333IC9H18+0.6666667IC18H35_T+IC7H14+1.6666667IC10H20+0.3333333IC19H37_T+C5H10_2+1.6666667IC8H16+0.3333333IC17H33_T 4.92e+10 1.00 73000
	FORD/IC36H70 0/
	FORD/IC36H72 0/
	FORD/IC36H74 1/
	FORD/IC18H34 1/
2.6666667IC37H72+5.3333333IC37H74+2.6666667IC37H76+6.0IC18H34=>2.6666667IC37H71+5.3333333IC37H73+2.6666667IC37H75+2.0IC6H12+3.3333333IC9H18+0.6666667IC18H35_T+IC7H14+1.6666667IC10H20+0.3333333IC19H37_T+C5H10_2+1.6666667IC8H16+0.3333333IC17H33_T 4.92e+10 1.00 73000
	FORD/IC37H72 0/
	FORD/IC37H74 0/
	FORD/IC37H76 1/
	FORD/IC18H34 1/
!!         IC19H40(L)         !!
3.6666667IC17H32+7.3333333IC17H34+3.6666667IC17H36+9.0IC19H40=>3.6666667IC17H31+7.3333333IC17H33+3.6666667IC17H35+2.0IC6H14+4.0IC9H20+2.0IC18H37_T+2.0IC4H10+2.0IC7H16+3.6666667IC10H22+1.3333333IC19H39_T+C3H8 4.92e+10 1.00 73000
	FORD/IC17H32 0/
	FORD/IC17H34 0/
	FORD/IC17H36 1/
	FORD/IC19H40 1/
3.6666667IC18H34+7.3333333IC18H36+3.6666667IC18H38+9.0IC19H40=>3.6666667IC18H33+7.3333333IC18H35+3.6666667IC18H37+2.0IC6H14+4.0IC9H20+2.0IC18H37_T+2.0IC4H10+2.0IC7H16+3.6666667IC10H22+1.3333333IC19H39_T+C3H8 4.92e+10 1.00 73000
	FORD/IC18H34 0/
	FORD/IC18H36 0/
	FORD/IC18H38 1/
	FORD/IC19H40 1/
3.6666667IC19H36+7.3333333IC19H38+12.6666667IC19H40=>3.6666667IC19H35+7.3333333IC19H37+3.6666667IC19H39+2.0IC6H14+4.0IC9H20+2.0IC18H37_T+2.0IC4H10+2.0IC7H16+3.6666667IC10H22+1.3333333IC19H39_T+C3H8 4.92e+10 1.00 73000
	FORD/IC19H36 0/
	FORD/IC19H38 0/
	FORD/IC19H40 2/
3.6666667IC26H50+7.3333333IC26H52+3.6666667IC26H54+9.0IC19H40=>3.6666667IC26H49+7.3333333IC26H51+3.6666667IC26H53+2.0IC6H14+4.0IC9H20+2.0IC18H37_T+2.0IC4H10+2.0IC7H16+3.6666667IC10H22+1.3333333IC19H39_T+C3H8 4.92e+10 1.00 73000
	FORD/IC26H50 0/
	FORD/IC26H52 0/
	FORD/IC26H54 1/
	FORD/IC19H40 1/
3.6666667IC27H52+7.3333333IC27H54+3.6666667IC27H56+9.0IC19H40=>3.6666667IC27H51+7.3333333IC27H53+3.6666667IC27H55+2.0IC6H14+4.0IC9H20+2.0IC18H37_T+2.0IC4H10+2.0IC7H16+3.6666667IC10H22+1.3333333IC19H39_T+C3H8 4.92e+10 1.00 73000
	FORD/IC27H52 0/
	FORD/IC27H54 0/
	FORD/IC27H56 1/
	FORD/IC19H40 1/
3.6666667IC28H54+7.3333333IC28H56+3.6666667IC28H58+9.0IC19H40=>3.6666667IC28H53+7.3333333IC28H55+3.6666667IC28H57+2.0IC6H14+4.0IC9H20+2.0IC18H37_T+2.0IC4H10+2.0IC7H16+3.6666667IC10H22+1.3333333IC19H39_T+C3H8 4.92e+10 1.00 73000
	FORD/IC28H54 0/
	FORD/IC28H56 0/
	FORD/IC28H58 1/
	FORD/IC19H40 1/
3.6666667IC35H68+7.3333333IC35H70+3.6666667IC35H72+9.0IC19H40=>3.6666667IC35H67+7.3333333IC35H69+3.6666667IC35H71+2.0IC6H14+4.0IC9H20+2.0IC18H37_T+2.0IC4H10+2.0IC7H16+3.6666667IC10H22+1.3333333IC19H39_T+C3H8 4.92e+10 1.00 73000
	FORD/IC35H68 0/
	FORD/IC35H70 0/
	FORD/IC35H72 1/
	FORD/IC19H40 1/
3.6666667IC36H70+7.3333333IC36H72+3.6666667IC36H74+9.0IC19H40=>3.6666667IC36H69+7.3333333IC36H71+3.6666667IC36H73+2.0IC6H14+4.0IC9H20+2.0IC18H37_T+2.0IC4H10+2.0IC7H16+3.6666667IC10H22+1.3333333IC19H39_T+C3H8 4.92e+10 1.00 73000
	FORD/IC36H70 0/
	FORD/IC36H72 0/
	FORD/IC36H74 1/
	FORD/IC19H40 1/
3.6666667IC37H72+7.3333333IC37H74+3.6666667IC37H76+9.0IC19H40=>3.6666667IC37H71+7.3333333IC37H73+3.6666667IC37H75+2.0IC6H14+4.0IC9H20+2.0IC18H37_T+2.0IC4H10+2.0IC7H16+3.6666667IC10H22+1.3333333IC19H39_T+C3H8 4.92e+10 1.00 73000
	FORD/IC37H72 0/
	FORD/IC37H74 0/
	FORD/IC37H76 1/
	FORD/IC19H40 1/
!!         IC19H38(L)         !!
3.3333333IC17H32+6.6666667IC17H34+3.3333333IC17H36+8.0IC19H38=>3.3333333IC17H31+6.6666667IC17H33+3.3333333IC17H35+IC6H12+2.0IC9H18+IC18H35_T+IC4H10+IC7H16+1.6666667IC10H22+0.3333333IC19H39_T+IC7H14+2.0IC10H20+IC19H37_T+C3H8+IC6H14+1.6666667IC9H20+0.3333333IC18H37_T 4.92e+10 1.00 73000
	FORD/IC17H32 0/
	FORD/IC17H34 0/
	FORD/IC17H36 1/
	FORD/IC19H38 1/
3.3333333IC18H34+6.6666667IC18H36+3.3333333IC18H38+8.0IC19H38=>3.3333333IC18H33+6.6666667IC18H35+3.3333333IC18H37+IC6H12+2.0IC9H18+IC18H35_T+IC4H10+IC7H16+1.6666667IC10H22+0.3333333IC19H39_T+IC7H14+2.0IC10H20+IC19H37_T+C3H8+IC6H14+1.6666667IC9H20+0.3333333IC18H37_T 4.92e+10 1.00 73000
	FORD/IC18H34 0/
	FORD/IC18H36 0/
	FORD/IC18H38 1/
	FORD/IC19H38 1/
3.3333333IC19H36+14.6666667IC19H38+3.3333333IC19H40=>3.3333333IC19H35+6.6666667IC19H37+3.3333333IC19H39+IC6H12+2.0IC9H18+IC18H35_T+IC4H10+IC7H16+1.6666667IC10H22+0.3333333IC19H39_T+IC7H14+2.0IC10H20+IC19H37_T+C3H8+IC6H14+1.6666667IC9H20+0.3333333IC18H37_T 4.92e+10 1.00 73000
	FORD/IC19H36 0/
	FORD/IC19H38 1/
	FORD/IC19H40 1/
3.3333333IC26H50+6.6666667IC26H52+3.3333333IC26H54+8.0IC19H38=>3.3333333IC26H49+6.6666667IC26H51+3.3333333IC26H53+IC6H12+2.0IC9H18+IC18H35_T+IC4H10+IC7H16+1.6666667IC10H22+0.3333333IC19H39_T+IC7H14+2.0IC10H20+IC19H37_T+C3H8+IC6H14+1.6666667IC9H20+0.3333333IC18H37_T 4.92e+10 1.00 73000
	FORD/IC26H50 0/
	FORD/IC26H52 0/
	FORD/IC26H54 1/
	FORD/IC19H38 1/
3.3333333IC27H52+6.6666667IC27H54+3.3333333IC27H56+8.0IC19H38=>3.3333333IC27H51+6.6666667IC27H53+3.3333333IC27H55+IC6H12+2.0IC9H18+IC18H35_T+IC4H10+IC7H16+1.6666667IC10H22+0.3333333IC19H39_T+IC7H14+2.0IC10H20+IC19H37_T+C3H8+IC6H14+1.6666667IC9H20+0.3333333IC18H37_T 4.92e+10 1.00 73000
	FORD/IC27H52 0/
	FORD/IC27H54 0/
	FORD/IC27H56 1/
	FORD/IC19H38 1/
3.3333333IC28H54+6.6666667IC28H56+3.3333333IC28H58+8.0IC19H38=>3.3333333IC28H53+6.6666667IC28H55+3.3333333IC28H57+IC6H12+2.0IC9H18+IC18H35_T+IC4H10+IC7H16+1.6666667IC10H22+0.3333333IC19H39_T+IC7H14+2.0IC10H20+IC19H37_T+C3H8+IC6H14+1.6666667IC9H20+0.3333333IC18H37_T 4.92e+10 1.00 73000
	FORD/IC28H54 0/
	FORD/IC28H56 0/
	FORD/IC28H58 1/
	FORD/IC19H38 1/
3.3333333IC35H68+6.6666667IC35H70+3.3333333IC35H72+8.0IC19H38=>3.3333333IC35H67+6.6666667IC35H69+3.3333333IC35H71+IC6H12+2.0IC9H18+IC18H35_T+IC4H10+IC7H16+1.6666667IC10H22+0.3333333IC19H39_T+IC7H14+2.0IC10H20+IC19H37_T+C3H8+IC6H14+1.6666667IC9H20+0.3333333IC18H37_T 4.92e+10 1.00 73000
	FORD/IC35H68 0/
	FORD/IC35H70 0/
	FORD/IC35H72 1/
	FORD/IC19H38 1/
3.3333333IC36H70+6.6666667IC36H72+3.3333333IC36H74+8.0IC19H38=>3.3333333IC36H69+6.6666667IC36H71+3.3333333IC36H73+IC6H12+2.0IC9H18+IC18H35_T+IC4H10+IC7H16+1.6666667IC10H22+0.3333333IC19H39_T+IC7H14+2.0IC10H20+IC19H37_T+C3H8+IC6H14+1.6666667IC9H20+0.3333333IC18H37_T 4.92e+10 1.00 73000
	FORD/IC36H70 0/
	FORD/IC36H72 0/
	FORD/IC36H74 1/
	FORD/IC19H38 1/
3.3333333IC37H72+6.6666667IC37H74+3.3333333IC37H76+8.0IC19H38=>3.3333333IC37H71+6.6666667IC37H73+3.3333333IC37H75+IC6H12+2.0IC9H18+IC18H35_T+IC4H10+IC7H16+1.6666667IC10H22+0.3333333IC19H39_T+IC7H14+2.0IC10H20+IC19H37_T+C3H8+IC6H14+1.6666667IC9H20+0.3333333IC18H37_T 4.92e+10 1.00 73000
	FORD/IC37H72 0/
	FORD/IC37H74 0/
	FORD/IC37H76 1/
	FORD/IC19H38 1/
!!         IC19H36(L)         !!
2.6666667IC17H32+5.3333333IC17H34+2.6666667IC17H36+6.0IC19H36=>2.6666667IC17H31+5.3333333IC17H33+2.6666667IC17H35+2.0IC6H12+3.3333333IC9H18+0.6666667IC18H35_T+2.0IC7H14+3.3333333IC10H20+0.6666667IC19H37_T 4.92e+10 1.00 73000
	FORD/IC17H32 0/
	FORD/IC17H34 0/
	FORD/IC17H36 1/
	FORD/IC19H36 1/
2.6666667IC18H34+5.3333333IC18H36+2.6666667IC18H38+6.0IC19H36=>2.6666667IC18H33+5.3333333IC18H35+2.6666667IC18H37+2.0IC6H12+3.3333333IC9H18+0.6666667IC18H35_T+2.0IC7H14+3.3333333IC10H20+0.6666667IC19H37_T 4.92e+10 1.00 73000
	FORD/IC18H34 0/
	FORD/IC18H36 0/
	FORD/IC18H38 1/
	FORD/IC19H36 1/
8.6666667IC19H36+5.3333333IC19H38+2.6666667IC19H40=>2.6666667IC19H35+5.3333333IC19H37+2.6666667IC19H39+2.0IC6H12+3.3333333IC9H18+0.6666667IC18H35_T+2.0IC7H14+3.3333333IC10H20+0.6666667IC19H37_T 4.92e+10 1.00 73000
	FORD/IC19H36 1/
	FORD/IC19H38 0/
	FORD/IC19H40 1/
2.6666667IC26H50+5.3333333IC26H52+2.6666667IC26H54+6.0IC19H36=>2.6666667IC26H49+5.3333333IC26H51+2.6666667IC26H53+2.0IC6H12+3.3333333IC9H18+0.6666667IC18H35_T+2.0IC7H14+3.3333333IC10H20+0.6666667IC19H37_T 4.92e+10 1.00 73000
	FORD/IC26H50 0/
	FORD/IC26H52 0/
	FORD/IC26H54 1/
	FORD/IC19H36 1/
2.6666667IC27H52+5.3333333IC27H54+2.6666667IC27H56+6.0IC19H36=>2.6666667IC27H51+5.3333333IC27H53+2.6666667IC27H55+2.0IC6H12+3.3333333IC9H18+0.6666667IC18H35_T+2.0IC7H14+3.3333333IC10H20+0.6666667IC19H37_T 4.92e+10 1.00 73000
	FORD/IC27H52 0/
	FORD/IC27H54 0/
	FORD/IC27H56 1/
	FORD/IC19H36 1/
2.6666667IC28H54+5.3333333IC28H56+2.6666667IC28H58+6.0IC19H36=>2.6666667IC28H53+5.3333333IC28H55+2.6666667IC28H57+2.0IC6H12+3.3333333IC9H18+0.6666667IC18H35_T+2.0IC7H14+3.3333333IC10H20+0.6666667IC19H37_T 4.92e+10 1.00 73000
	FORD/IC28H54 0/
	FORD/IC28H56 0/
	FORD/IC28H58 1/
	FORD/IC19H36 1/
2.6666667IC35H68+5.3333333IC35H70+2.6666667IC35H72+6.0IC19H36=>2.6666667IC35H67+5.3333333IC35H69+2.6666667IC35H71+2.0IC6H12+3.3333333IC9H18+0.6666667IC18H35_T+2.0IC7H14+3.3333333IC10H20+0.6666667IC19H37_T 4.92e+10 1.00 73000
	FORD/IC35H68 0/
	FORD/IC35H70 0/
	FORD/IC35H72 1/
	FORD/IC19H36 1/
2.6666667IC36H70+5.3333333IC36H72+2.6666667IC36H74+6.0IC19H36=>2.6666667IC36H69+5.3333333IC36H71+2.6666667IC36H73+2.0IC6H12+3.3333333IC9H18+0.6666667IC18H35_T+2.0IC7H14+3.3333333IC10H20+0.6666667IC19H37_T 4.92e+10 1.00 73000
	FORD/IC36H70 0/
	FORD/IC36H72 0/
	FORD/IC36H74 1/
	FORD/IC19H36 1/
2.6666667IC37H72+5.3333333IC37H74+2.6666667IC37H76+6.0IC19H36=>2.6666667IC37H71+5.3333333IC37H73+2.6666667IC37H75+2.0IC6H12+3.3333333IC9H18+0.6666667IC18H35_T+2.0IC7H14+3.3333333IC10H20+0.6666667IC19H37_T 4.92e+10 1.00 73000
	FORD/IC37H72 0/
	FORD/IC37H74 0/
	FORD/IC37H76 1/
	FORD/IC19H36 1/
!!         IC26H54(L)         !!
3.75IC17H32+7.5IC17H34+3.75IC17H36+15.0IC26H54=>3.75IC17H31+7.5IC17H33+3.75IC17H35+2.0NC5H12+4.0IC8H18+6.0IC17H35_T+2.0IC26H53_T+2.0C3H8+2.0IC6H14+4.0IC9H20+5.6666667IC18H37_T+1.3333333IC27H55_T+C2H6 4.92e+10 1.00 73000
	FORD/IC17H32 0/
	FORD/IC17H34 0/
	FORD/IC17H36 1/
	FORD/IC26H54 1/
3.75IC18H34+7.5IC18H36+3.75IC18H38+15.0IC26H54=>3.75IC18H33+7.5IC18H35+3.75IC18H37+2.0NC5H12+4.0IC8H18+6.0IC17H35_T+2.0IC26H53_T+2.0C3H8+2.0IC6H14+4.0IC9H20+5.6666667IC18H37_T+1.3333333IC27H55_T+C2H6 4.92e+10 1.00 73000
	FORD/IC18H34 0/
	FORD/IC18H36 0/
	FORD/IC18H38 1/
	FORD/IC26H54 1/
3.75IC19H36+7.5IC19H38+3.75IC19H40+15.0IC26H54=>3.75IC19H35+7.5IC19H37+3.75IC19H39+2.0NC5H12+4.0IC8H18+6.0IC17H35_T+2.0IC26H53_T+2.0C3H8+2.0IC6H14+4.0IC9H20+5.6666667IC18H37_T+1.3333333IC27H55_T+C2H6 4.92e+10 1.00 73000
	FORD/IC19H36 0/
	FORD/IC19H38 0/
	FORD/IC19H40 1/
	FORD/IC26H54 1/
3.75IC26H50+7.5IC26H52+18.75IC26H54=>3.75IC26H49+7.5IC26H51+3.75IC26H53+2.0NC5H12+4.0IC8H18+6.0IC17H35_T+2.0IC26H53_T+2.0C3H8+2.0IC6H14+4.0IC9H20+5.6666667IC18H37_T+1.3333333IC27H55_T+C2H6 4.92e+10 1.00 73000
	FORD/IC26H50 0/
	FORD/IC26H52 0/
	FORD/IC26H54 2/
3.75IC27H52+7.5IC27H54+3.75IC27H56+15.0IC26H54=>3.75IC27H51+7.5IC27H53+3.75IC27H55+2.0NC5H12+4.0IC8H18+6.0IC17H35_T+2.0IC26H53_T+2.0C3H8+2.0IC6H14+4.0IC9H20+5.6666667IC18H37_T+1.3333333IC27H55_T+C2H6 4.92e+10 1.00 73000
	FORD/IC27H52 0/
	FORD/IC27H54 0/
	FORD/IC27H56 1/
	FORD/IC26H54 1/
3.75IC28H54+7.5IC28H56+3.75IC28H58+15.0IC26H54=>3.75IC28H53+7.5IC28H55+3.75IC28H57+2.0NC5H12+4.0IC8H18+6.0IC17H35_T+2.0IC26H53_T+2.0C3H8+2.0IC6H14+4.0IC9H20+5.6666667IC18H37_T+1.3333333IC27H55_T+C2H6 4.92e+10 1.00 73000
	FORD/IC28H54 0/
	FORD/IC28H56 0/
	FORD/IC28H58 1/
	FORD/IC26H54 1/
3.75IC35H68+7.5IC35H70+3.75IC35H72+15.0IC26H54=>3.75IC35H67+7.5IC35H69+3.75IC35H71+2.0NC5H12+4.0IC8H18+6.0IC17H35_T+2.0IC26H53_T+2.0C3H8+2.0IC6H14+4.0IC9H20+5.6666667IC18H37_T+1.3333333IC27H55_T+C2H6 4.92e+10 1.00 73000
	FORD/IC35H68 0/
	FORD/IC35H70 0/
	FORD/IC35H72 1/
	FORD/IC26H54 1/