THERMO
   300.0   1000.0   3000.0


N2                G 8/02N   2    0    0    0G   200.000  6000.00  1000.00      1
 2.95257637E+00 1.39690040E-03-4.92631603E-07 7.86010195E-11-4.60755204E-15    2
-9.23948688E+02 5.87188762E+00 3.53100528E+00-1.23660988E-04-5.02999433E-07    3
 2.43530612E-09-1.40881235E-12-1.04697628E+03 2.96747038E+00 0.00000000E+00    4

N2(L)             G 8/02N   2    0    0    0G   200.000  6000.00  1000.00      1
 2.95257637E+00 1.39690040E-03-4.92631603E-07 7.86010195E-11-4.60755204E-15    2
-9.23948688E+02 5.87188762E+00 3.53100528E+00-1.23660988E-04-5.02999433E-07    3
 2.43530612E-09-1.40881235E-12-1.04697628E+03 2.96747038E+00 0.00000000E+00    4

HE                      HE  1               G    200.00   3500.00  850.00      1
 2.50020615e+00-5.42576298e-07 4.63926302e-10-1.57302170e-13 1.82971406e-17    2
-7.45426807e+02 9.27648988e-01 2.49964853e+00 2.08151569e-06-4.16682427e-09    3
 3.47465907e-12-1.04992675e-15-7.45332012e+02 9.30248556e-01                   4

P-C21H42-P_S(L)         C  21H  42O   0N   0G    200.00   2000.00 1500.00      1
 2.08836123E+01-1.23522672E-01 1.19540322E-03-1.36132793E-06 4.46154537E-10    2
-8.31127422E+04-6.49622185E+01 2.08836123E+01-1.23522672E-01 1.19540322E-03    3
-1.36132793E-06 4.46154537E-10-8.31127422E+04-6.49622185E+01                   4 
P-C21H42-P_S            C  21H  42O   0N   0G    200.00   2000.00 1500.00      1
 2.08836123E+01-1.23522672E-01 1.19540322E-03-1.36132793E-06 4.46154537E-10    2
-8.31127422E+04-6.49622185E+01 2.08836123E+01-1.23522672E-01 1.19540322E-03    3
-1.36132793E-06 4.46154537E-10-8.31127422E+04-6.49622185E+01                   4 
P-C21H42-P(L)           C  21H  42O   0N   0G    200.00   2000.00 1829.31      1
 3.00975687E+01 1.84260678E-01-1.30651659E-04 5.78456718E-08-1.09880310E-11    2
-8.09382563E+04-1.28451358E+02 3.00975687E+01 1.84260678E-01-1.30651659E-04    3
 5.78456718E-08-1.09880310E-11-8.09382563E+04-1.28451358E+02                   4 
P-C21H42-P              C  21H  42O   0N   0G    200.00   2000.00 1829.31      1
 3.00975687E+01 1.84260678E-01-1.30651659E-04 5.78456718E-08-1.09880310E-11    2
-8.09382563E+04-1.28451358E+02 3.00975687E+01 1.84260678E-01-1.30651659E-04    3
 5.78456718E-08-1.09880310E-11-8.09382563E+04-1.28451358E+02                   4 
P-C21H41-P(L)           C  21H  41O   0N   0G    200.00   2000.00 1829.31      1
 3.13882929E+01 1.77128452E-01-1.24102074E-04 5.39290198E-08-9.93592295E-12    2
-5.78698957E+04-1.32874817E+02 3.13882929E+01 1.77128452E-01-1.24102074E-04    3
 5.39290198E-08-9.93592295E-12-5.78698957E+04-1.32874817E+02                   4 
P-C21H41-P              C  21H  41O   0N   0G    200.00   2000.00 1829.31      1
 3.13882929E+01 1.77128452E-01-1.24102074E-04 5.39290198E-08-9.93592295E-12    2
-5.78698957E+04-1.32874817E+02 3.13882929E+01 1.77128452E-01-1.24102074E-04    3
 5.39290198E-08-9.93592295E-12-5.78698957E+04-1.32874817E+02                   4 
P-C21H43(L)             C  21H  43O   0N   0G    200.00   2000.00 1829.31      1
 5.98181077E+02-3.62754922E+00 7.65066703E-03-5.88533945E-06 1.54446884E-09    2
-1.41439493E+05-2.58380681E+03 5.98181077E+02-3.62754922E+00 7.65066703E-03    3
-5.88533945E-06 1.54446884E-09-1.41439493E+05-2.58380681E+03                   4 
P-C21H43                C  21H  43O   0N   0G    200.00   2000.00 1829.31      1
 5.98181077E+02-3.62754922E+00 7.65066703E-03-5.88533945E-06 1.54446884E-09    2
-1.41439493E+05-2.58380681E+03 5.98181077E+02-3.62754922E+00 7.65066703E-03    3
-5.88533945E-06 1.54446884E-09-1.41439493E+05-2.58380681E+03                   4 
P-C21H41(L)             C  21H  41O   0N   0G    200.00   2000.00 1829.31      1
 6.13045089E+02-3.66698513E+00 7.67823216E-03-5.89256320E-06 1.54485975E-09    2
-1.30550478E+05-2.66278619E+03 6.13045089E+02-3.66698513E+00 7.67823216E-03    3
-5.89256320E-06 1.54485975E-09-1.30550478E+05-2.66278619E+03                   4 
P-C21H41                C  21H  41O   0N   0G    200.00   2000.00 1829.31      1
 6.13045089E+02-3.66698513E+00 7.67823216E-03-5.89256320E-06 1.54485975E-09    2
-1.30550478E+05-2.66278619E+03 6.13045089E+02-3.66698513E+00 7.67823216E-03    3
-5.89256320E-06 1.54485975E-09-1.30550478E+05-2.66278619E+03                   4 
P-C21H42(L)             C  21H  42O   0N   0G    200.00   2000.00 1829.31      1
 5.99471801E+02-3.63468144E+00 7.65721662E-03-5.88925610E-06 1.54552094E-09    2
-1.18371133E+05-2.58823027E+03 5.99471801E+02-3.63468144E+00 7.65721662E-03    3
-5.88925610E-06 1.54552094E-09-1.18371133E+05-2.58823027E+03                   4 
P-C21H42                C  21H  42O   0N   0G    200.00   2000.00 1829.31      1
 5.99471801E+02-3.63468144E+00 7.65721662E-03-5.88925610E-06 1.54552094E-09    2
-1.18371133E+05-2.58823027E+03 5.99471801E+02-3.63468144E+00 7.65721662E-03    3
-5.88925610E-06 1.54552094E-09-1.18371133E+05-2.58823027E+03                   4 
P-C21H42_T(L)           C  21H  42O   0N   0G    200.00   2000.00 1829.31      1
 5.98579623E+02-3.62947762E+00 7.65111831E-03-5.88702217E-06 1.54541412E-09    2
-1.16720895E+05-2.58469246E+03 5.98579623E+02-3.62947762E+00 7.65111831E-03    3
-5.88702217E-06 1.54541412E-09-1.16720895E+05-2.58469246E+03                   4 
P-C21H42_T              C  21H  42O   0N   0G    200.00   2000.00 1829.31      1
 5.98579623E+02-3.62947762E+00 7.65111831E-03-5.88702217E-06 1.54541412E-09    2
-1.16720895E+05-2.58469246E+03 5.98579623E+02-3.62947762E+00 7.65111831E-03    3
-5.88702217E-06 1.54541412E-09-1.16720895E+05-2.58469246E+03                   4 
P-C21H40(L)             C  21H  40O   0N   0G    200.00   2000.00 1829.31      1
 6.14335814E+02-3.67411735E+00 7.68478174E-03-5.89647985E-06 1.54591186E-09    2
-1.07482117E+05-2.66720965E+03 6.14335814E+02-3.67411735E+00 7.68478174E-03    3
-5.89647985E-06 1.54591186E-09-1.07482117E+05-2.66720965E+03                   4 
P-C21H40                C  21H  40O   0N   0G    200.00   2000.00 1829.31      1
 6.14335814E+02-3.67411735E+00 7.68478174E-03-5.89647985E-06 1.54591186E-09    2
-1.07482117E+05-2.66720965E+03 6.14335814E+02-3.67411735E+00 7.68478174E-03    3
-5.89647985E-06 1.54591186E-09-1.07482117E+05-2.66720965E+03                   4 
P-C21H40_A(L)           C  21H  40O   0N   0G    200.00   2000.00 1829.31      1
 6.13773846E+02-3.67304738E+00 7.68951280E-03-5.90344150E-06 1.54839665E-09    2
-1.13720860E+05-2.66804230E+03 6.13773846E+02-3.67304738E+00 7.68951280E-03    3
-5.90344150E-06 1.54839665E-09-1.13720860E+05-2.66804230E+03                   4 
P-C21H40_A              C  21H  40O   0N   0G    200.00   2000.00 1829.31      1
 6.13773846E+02-3.67304738E+00 7.68951280E-03-5.90344150E-06 1.54839665E-09    2
-1.13720860E+05-2.66804230E+03 6.13773846E+02-3.67304738E+00 7.68951280E-03    3
-5.90344150E-06 1.54839665E-09-1.13720860E+05-2.66804230E+03                   4 
CH4(L)                  C   1H   4O   0N   0G    200.00   2000.00 2000.00      1
 3.66775286E+00-2.63278749E-03 2.05103874E-05-1.73297690E-08 4.65239036E-12    2
-1.01361512E+04-1.45682596E+00 3.66775286E+00-2.63278749E-03 2.05103874E-05    3
-1.73297690E-08 4.65239036E-12-1.01361512E+04-1.45682596E+00                   4 
CH4                     C   1H   4O   0N   0G    200.00   2000.00 2000.00      1
 3.66775286E+00-2.63278749E-03 2.05103874E-05-1.73297690E-08 4.65239036E-12    2
-1.01361512E+04-1.45682596E+00 3.66775286E+00-2.63278749E-03 2.05103874E-05    3
-1.73297690E-08 4.65239036E-12-1.01361512E+04-1.45682596E+00                   4 
C2H6(L)                 C   2H   6O   0N   0G    200.00   2000.00  304.11      1
 1.32490112E+00 1.59917120E-02 4.20097262E-06-1.02544400E-08 3.42059504E-12    2
-1.12072447E+04 1.53081004E+01 1.98209766E+02-4.70989482E+00 4.23885481E-02    3
-1.63652556E-04 2.31987037E-07-2.06743173E+04-5.94982231E+02                   4 
C2H6                    C   2H   6O   0N   0G    200.00   2000.00  304.11      1
 1.32490112E+00 1.59917120E-02 4.20097262E-06-1.02544400E-08 3.42059504E-12    2
-1.12072447E+04 1.53081004E+01 1.32490112E+00 1.59917120E-02 4.20097262E-06    3
-1.02544400E-08 3.42059504E-12-1.12072447E+04 1.53081004E+01                   4 
C3H8(L)                 C   3H   8O   0N   0G    200.00   2000.00  383.81      1
 9.86741119E-01 2.89186335E-02-4.80804969E-06-7.15048163E-09 3.01820125E-12    2
-1.41260837E+04 1.86646638E+01 8.35244129E+01-1.68135050E+00 1.34289591E-02    3
-4.46464402E-05 5.39523655E-08-2.07093096E+04-2.56884286E+02                   4 
C3H8                    C   3H   8O   0N   0G    200.00   2000.00  383.81      1
 9.86741119E-01 2.89186335E-02-4.80804969E-06-7.15048163E-09 3.01820125E-12    2
-1.41260837E+04 1.86646638E+01 9.86741119E-01 2.89186335E-02-4.80804969E-06    3
-7.15048163E-09 3.01820125E-12-1.41260837E+04 1.86646638E+01                   4 
NC4H10(L)               C   4H  10O   0N   0G    200.00   2000.00 2000.00      1
 6.48581116E-01 4.18455549E-02-1.38170720E-05-4.04652328E-09 2.61580746E-12    2
-1.70449227E+04 2.20212272E+01 6.48581116E-01 4.18455549E-02-1.38170720E-05    3
-4.04652328E-09 2.61580746E-12-1.70449227E+04 2.20212272E+01                   4 
NC4H10                  C   4H  10O   0N   0G    200.00   2000.00 2000.00      1
 6.48581116E-01 4.18455549E-02-1.38170720E-05-4.04652328E-09 2.61580746E-12    2
-1.70449227E+04 2.20212272E+01 6.48581116E-01 4.18455549E-02-1.38170720E-05    3
-4.04652328E-09 2.61580746E-12-1.70449227E+04 2.20212272E+01                   4 
NC5H12(L)               C   5H  12O   0N   0G    200.00   2000.00 2000.00      1
 3.10421113E-01 5.47724764E-02-2.28260943E-05-9.42564927E-10 2.21341367E-12    2
-1.99637617E+04 2.53777906E+01 3.10421113E-01 5.47724764E-02-2.28260943E-05    3
-9.42564927E-10 2.21341367E-12-1.99637617E+04 2.53777906E+01                   4 
NC5H12                  C   5H  12O   0N   0G    200.00   2000.00 2000.00      1
 3.10421113E-01 5.47724764E-02-2.28260943E-05-9.42564927E-10 2.21341367E-12    2
-1.99637617E+04 2.53777906E+01 3.10421113E-01 5.47724764E-02-2.28260943E-05    3
-9.42564927E-10 2.21341367E-12-1.99637617E+04 2.53777906E+01                   4 
C6H14(L)                C   6H  14O   0N   0G    200.00   2000.00  531.55      1
-2.77388897E-02 6.76993979E-02-3.18351166E-05 2.16139343E-09 1.81101988E-12    2
-2.28826008E+04 2.87343540E+01 3.86369149E+01-5.63701505E-01 4.02230881E-03    3
-1.06872159E-05 1.00958124E-08-2.95258953E+04-1.17356237E+02                   4 
C6H14                   C   6H  14O   0N   0G    200.00   2000.00  531.55      1
-2.77388897E-02 6.76993979E-02-3.18351166E-05 2.16139343E-09 1.81101988E-12    2
-2.28826008E+04 2.87343540E+01-2.77388897E-02 6.76993979E-02-3.18351166E-05    3
 2.16139343E-09 1.81101988E-12-2.28826008E+04 2.87343540E+01                   4 
NC7H16(L)               C   7H  16O   0N   0G    200.00   2000.00 2000.00      1
-3.65898892E-01 8.06263194E-02-4.08441389E-05 5.26535178E-09 1.40862609E-12    2
-2.58014398E+04 3.20909174E+01-3.65898892E-01 8.06263194E-02-4.08441389E-05    3
 5.26535178E-09 1.40862609E-12-2.58014398E+04 3.20909174E+01                   4 
NC7H16                  C   7H  16O   0N   0G    200.00   2000.00 2000.00      1
-3.65898892E-01 8.06263194E-02-4.08441389E-05 5.26535178E-09 1.40862609E-12    2
-2.58014398E+04 3.20909174E+01-3.65898892E-01 8.06263194E-02-4.08441389E-05    3
 5.26535178E-09 1.40862609E-12-2.58014398E+04 3.20909174E+01                   4 
C8H18(L)                C   8H  18O   0N   0G    200.00   2000.00  596.01      1
-7.04058895E-01 9.35532408E-02-4.98531612E-05 8.36931013E-09 1.00623230E-12    2
-2.87202788E+04 3.54474808E+01 2.76666373E+01-3.20032510E-01 2.44325401E-03    3
-6.08475230E-06 5.32331538E-09-3.59583256E+04-8.00485900E+01                   4 
C8H18                   C   8H  18O   0N   0G    200.00   2000.00  596.01      1
-7.04058895E-01 9.35532408E-02-4.98531612E-05 8.36931013E-09 1.00623230E-12    2
-2.87202788E+04 3.54474808E+01-7.04058895E-01 9.35532408E-02-4.98531612E-05    3
 8.36931013E-09 1.00623230E-12-2.87202788E+04 3.54474808E+01                   4 
C9H20(L)                C   9H  20O   0N   0G    200.00   2000.00  623.48      1
-1.04221890E+00 1.06480162E-01-5.88621835E-05 1.14732685E-08 6.03838513E-13    2
-3.16391178E+04 3.88040442E+01 2.50634602E+01-2.56894995E-01 2.07924665E-03    3
-5.06319091E-06 4.30206277E-09-3.93684852E+04-7.07334731E+01                   4 
C9H20                   C   9H  20O   0N   0G    200.00   2000.00  623.48      1
-1.04221890E+00 1.06480162E-01-5.88621835E-05 1.14732685E-08 6.03838513E-13    2
-3.16391178E+04 3.88040442E+01-1.04221890E+00 1.06480162E-01-5.88621835E-05    3
 1.14732685E-08 6.03838513E-13-3.16391178E+04 3.88040442E+01                   4 
NC10H22(L)              C  10H  22O   0N   0G    200.00   2000.00 2000.00      1
-1.38037890E+00 1.19407084E-01-6.78712058E-05 1.45772268E-08 2.01444723E-13    2
-3.45579568E+04 4.21606076E+01-1.38037890E+00 1.19407084E-01-6.78712058E-05    3
 1.45772268E-08 2.01444723E-13-3.45579568E+04 4.21606076E+01                   4 
NC10H22                 C  10H  22O   0N   0G    200.00   2000.00 2000.00      1
-1.38037890E+00 1.19407084E-01-6.78712058E-05 1.45772268E-08 2.01444723E-13    2
-3.45579568E+04 4.21606076E+01-1.38037890E+00 1.19407084E-01-6.78712058E-05    3
 1.45772268E-08 2.01444723E-13-3.45579568E+04 4.21606076E+01                   4 
C2H4(L)                 C   2H   4O   0N   0G    200.00   2000.00  292.59      1
 5.52229738E-01 1.73771352E-02-7.04428529E-06-3.10197256E-10 6.99587116E-13    2
 5.44752973E+03 1.87631795E+01 3.46078095E+02-8.48234162E+00 7.84548491E-02    3
-3.12741500E-04 4.59203448E-07-1.08668772E+04-1.04513344E+03                   4 
C2H4                    C   2H   4O   0N   0G    200.00   2000.00  292.59      1
 5.52229738E-01 1.73771352E-02-7.04428529E-06-3.10197256E-10 6.99587116E-13    2
 5.44752973E+03 1.87631795E+01 5.52229738E-01 1.73771352E-02-7.04428529E-06    3
-3.10197256E-10 6.99587116E-13 5.44752973E+03 1.87631795E+01                   4 
C3H6(L)                 C   3H   6O   0N   0G    200.00   2000.00  398.41      1
 1.43451610E+00 2.29623781E-02-3.57660669E-06-5.98693905E-09 2.51118188E-12    2
 1.06782396E+03 1.73134202E+01 1.07680302E+02-2.12238826E+00 1.65710142E-02    3
-5.40197730E-05 6.39984834E-08-8.64381492E+03-3.44043059E+02                   4 
C3H6                    C   3H   6O   0N   0G    200.00   2000.00  398.41      1
 1.43451610E+00 2.29623781E-02-3.57660669E-06-5.98693905E-09 2.51118188E-12    2
 1.06782396E+03 1.73134202E+01 1.43451610E+00 2.29623781E-02-3.57660669E-06    3
-5.98693905E-09 2.51118188E-12 1.06782396E+03 1.73134202E+01                   4 
C4H8-1(L)               C   4H   8O   0N   0G    200.00   2000.00 2000.00      1
 7.70118981E-01 3.59316371E-02-1.23667953E-05-2.91838512E-09 2.06414488E-12    2
-1.74201636E+03 2.24545027E+01 7.70118981E-01 3.59316371E-02-1.23667953E-05    3
-2.91838512E-09 2.06414488E-12-1.74201636E+03 2.24545027E+01                   4 
C4H8-1                  C   4H   8O   0N   0G    200.00   2000.00 2000.00      1
 7.70118981E-01 3.59316371E-02-1.23667953E-05-2.91838512E-09 2.06414488E-12    2
-1.74201636E+03 2.24545027E+01 7.70118981E-01 3.59316371E-02-1.23667953E-05    3
-2.91838512E-09 2.06414488E-12-1.74201636E+03 2.24545027E+01                   4 
NC5H10(L)               C   5H  10O   0N   0G    200.00   2000.00 2000.00      1
 4.31958978E-01 4.88585586E-02-2.13758176E-05 1.85573232E-10 1.66175109E-12    2
-4.66085537E+03 2.58110661E+01 4.31958978E-01 4.88585586E-02-2.13758176E-05    3
 1.85573232E-10 1.66175109E-12-4.66085537E+03 2.58110661E+01                   4 
NC5H10                  C   5H  10O   0N   0G    200.00   2000.00 2000.00      1
 4.31958978E-01 4.88585586E-02-2.13758176E-05 1.85573232E-10 1.66175109E-12    2
-4.66085537E+03 2.58110661E+01 4.31958978E-01 4.88585586E-02-2.13758176E-05    3
 1.85573232E-10 1.66175109E-12-4.66085537E+03 2.58110661E+01                   4 
NC6H12(L)               C   6H  12O   0N   0G    200.00   2000.00 2000.00      1
 9.37989751E-02 6.17854800E-02-3.03848399E-05 3.28953159E-09 1.25935730E-12    2
-7.57969439E+03 2.91676295E+01 9.37989751E-02 6.17854800E-02-3.03848399E-05    3
 3.28953159E-09 1.25935730E-12-7.57969439E+03 2.91676295E+01                   4 
NC6H12                  C   6H  12O   0N   0G    200.00   2000.00 2000.00      1
 9.37989751E-02 6.17854800E-02-3.03848399E-05 3.28953159E-09 1.25935730E-12    2
-7.57969439E+03 2.91676295E+01 9.37989751E-02 6.17854800E-02-3.03848399E-05    3
 3.28953159E-09 1.25935730E-12-7.57969439E+03 2.91676295E+01                   4 
NC7H14(L)               C   7H  14O   0N   0G    200.00   2000.00 2000.00      1
-2.44361028E-01 7.47124015E-02-3.93938622E-05 6.39348994E-09 8.56963508E-13    2
-1.04985334E+04 3.25241929E+01-2.44361028E-01 7.47124015E-02-3.93938622E-05    3
 6.39348994E-09 8.56963508E-13-1.04985334E+04 3.25241929E+01                   4 
NC7H14                  C   7H  14O   0N   0G    200.00   2000.00 2000.00      1
-2.44361028E-01 7.47124015E-02-3.93938622E-05 6.39348994E-09 8.56963508E-13    2
-1.04985334E+04 3.25241929E+01-2.44361028E-01 7.47124015E-02-3.93938622E-05    3
 6.39348994E-09 8.56963508E-13-1.04985334E+04 3.25241929E+01                   4 
C8H16(L)                C   8H  16O   0N   0G    200.00   2000.00  605.07      1
-5.82521031E-01 8.76393230E-02-4.84028845E-05 9.49744829E-09 4.54569719E-13    2
-1.34173724E+04 3.58807563E+01 3.49120571E+01-4.22967928E-01 3.00800268E-03    3
-7.39710004E-06 6.41389468E-09-2.29548020E+04-1.10011114E+02                   4 
C8H16                   C   8H  16O   0N   0G    200.00   2000.00  605.07      1
-5.82521031E-01 8.76393230E-02-4.84028845E-05 9.49744829E-09 4.54569719E-13    2
-1.34173724E+04 3.58807563E+01-5.82521031E-01 8.76393230E-02-4.84028845E-05    3
 9.49744829E-09 4.54569719E-13-1.34173724E+04 3.58807563E+01                   4 
C9H18(L)                C   9H  18O   0N   0G    200.00   2000.00  631.81      1
-9.20681033E-01 1.00566244E-01-5.74119068E-05 1.26014066E-08 5.21759296E-14    2
-1.63362114E+04 3.92373197E+01 3.14858019E+01-3.45015535E-01 2.54797637E-03    3
-6.12410032E-06 5.16117247E-09-2.63646485E+04-9.79244984E+01                   4 
C9H18                   C   9H  18O   0N   0G    200.00   2000.00  631.81      1
-9.20681033E-01 1.00566244E-01-5.74119068E-05 1.26014066E-08 5.21759296E-14    2
-1.63362114E+04 3.92373197E+01-9.20681033E-01 1.00566244E-01-5.74119068E-05    3
 1.26014066E-08 5.21759296E-14-1.63362114E+04 3.92373197E+01                   4 
NC10H20(L)              C  10H  20O   0N   0G    200.00   2000.00 2000.00      1
-1.25884104E+00 1.13493166E-01-6.64209291E-05 1.57053650E-08-3.50217860E-13    2
-1.92550505E+04 4.25938831E+01-1.25884104E+00 1.13493166E-01-6.64209291E-05    3
 1.57053650E-08-3.50217860E-13-1.92550505E+04 4.25938831E+01                   4 
NC10H20                 C  10H  20O   0N   0G    200.00   2000.00 2000.00      1
-1.25884104E+00 1.13493166E-01-6.64209291E-05 1.57053650E-08-3.50217860E-13    2
-1.92550505E+04 4.25938831E+01-1.25884104E+00 1.13493166E-01-6.64209291E-05    3
 1.57053650E-08-3.50217860E-13-1.92550505E+04 4.25938831E+01                   4 
C4H6(L)                 C   4H   6O   0N   0G    200.00   2000.00  468.55      1
-3.02661718E+00 5.82168862E-02-6.45065203E-05 3.93573292E-08-9.59324783E-12    2
 1.18988641E+04 3.61114505E+01 8.47068119E+01-1.51454449E+00 1.09592197E-02    3
-3.20781614E-05 3.37706597E-08-1.32470061E+02-2.82344122E+02                   4 
C4H6                    C   4H   6O   0N   0G    200.00   2000.00  468.55      1
-3.02661718E+00 5.82168862E-02-6.45065203E-05 3.93573292E-08-9.59324783E-12    2
 1.18988641E+04 3.61114505E+01-3.02661718E+00 5.82168862E-02-6.45065203E-05    3
 3.93573292E-08-9.59324783E-12 1.18988641E+04 3.61114505E+01                   4 
LC5H8(L)                C   5H   8O   0N   0G    200.00   2000.00 2000.00      1
 5.53496843E-01 4.29446407E-02-1.99255408E-05 1.31371139E-09 1.11008850E-12    2
 1.06420510E+04 2.48580472E+01 5.53496843E-01 4.29446407E-02-1.99255408E-05    3
 1.31371139E-09 1.11008850E-12 1.06420510E+04 2.48580472E+01                   4 
LC5H8                   C   5H   8O   0N   0G    200.00   2000.00 2000.00      1
 5.53496843E-01 4.29446407E-02-1.99255408E-05 1.31371139E-09 1.11008850E-12    2
 1.06420510E+04 2.48580472E+01 5.53496843E-01 4.29446407E-02-1.99255408E-05    3
 1.31371139E-09 1.11008850E-12 1.06420510E+04 2.48580472E+01                   4 
DIALLYL(L)              C   6H  10O   0N   0G    200.00   2000.00 2000.00      1
 2.15336840E-01 5.58715622E-02-2.89345631E-05 4.41766975E-09 7.07694714E-13    2
 7.72321197E+03 2.82146106E+01 2.15336840E-01 5.58715622E-02-2.89345631E-05    3
 4.41766975E-09 7.07694714E-13 7.72321197E+03 2.82146106E+01                   4 
DIALLYL                 C   6H  10O   0N   0G    200.00   2000.00 2000.00      1
 2.15336840E-01 5.58715622E-02-2.89345631E-05 4.41766975E-09 7.07694714E-13    2
 7.72321197E+03 2.82146106E+01 2.15336840E-01 5.58715622E-02-2.89345631E-05    3
 4.41766975E-09 7.07694714E-13 7.72321197E+03 2.82146106E+01                   4 
C7H12(L)                C   7H  12O   0N   0G    200.00   2000.00  583.93      1
-1.22823163E-01 6.87984837E-02-3.79435854E-05 7.52162810E-09 3.05300925E-13    2
 4.80437295E+03 3.15711740E+01 4.76623862E+01-6.44597029E-01 4.31770905E-03    3
-1.08031176E-05 9.59405762E-09-6.59865060E+03-1.60185694E+02                   4 
C7H12                   C   7H  12O   0N   0G    200.00   2000.00  583.93      1
-1.22823163E-01 6.87984837E-02-3.79435854E-05 7.52162810E-09 3.05300925E-13    2
 4.80437295E+03 3.15711740E+01-1.22823163E-01 6.87984837E-02-3.79435854E-05    3
 7.52162810E-09 3.05300925E-13 4.80437295E+03 3.15711740E+01                   4 
C8H14(L)                C   8H  14O   0N   0G    200.00   2000.00  613.62      1
-4.60983166E-01 8.17254051E-02-4.69526077E-05 1.06255865E-08-9.70928641E-14    2
 1.88553394E+03 3.49277374E+01 4.14949014E+01-5.13882506E-01 3.49357502E-03    3
-8.49727517E-06 7.30365994E-09-9.93351970E+03-1.39115752E+02                   4 
C8H14                   C   8H  14O   0N   0G    200.00   2000.00  613.62      1
-4.60983166E-01 8.17254051E-02-4.69526077E-05 1.06255865E-08-9.70928641E-14    2
 1.88553394E+03 3.49277374E+01-4.60983166E-01 8.17254051E-02-4.69526077E-05    3
 1.06255865E-08-9.70928641E-14 1.88553394E+03 3.49277374E+01                   4 
C9H16(L)                C   9H  16O   0N   0G    200.00   2000.00  639.63      1
-7.99143169E-01 9.46523266E-02-5.59616301E-05 1.37295448E-08-4.99486653E-13    2
-1.03330508E+03 3.82843008E+01 3.74186636E+01-4.24448668E-01 2.96048433E-03    3
-7.03765056E-06 5.88408707E-09-1.33490404E+04-1.24814268E+02                   4 
C9H16                   C   9H  16O   0N   0G    200.00   2000.00  639.63      1
-7.99143169E-01 9.46523266E-02-5.59616301E-05 1.37295448E-08-4.99486653E-13    2
-1.03330508E+03 3.82843008E+01-7.99143169E-01 9.46523266E-02-5.59616301E-05    3
 1.37295448E-08-4.99486653E-13-1.03330508E+03 3.82843008E+01                   4 
C10H18(L)               C  10H  18O   0N   0G    200.00   2000.00  662.56      1
-1.13730317E+00 1.07579248E-01-6.49706524E-05 1.68335032E-08-9.01880442E-13    2
-3.95214410E+03 4.16408642E+01 3.45761605E+01-3.58903637E-01 2.59309796E-03    3
-6.05017313E-06 4.93978744E-09-1.68089433E+04-1.14535302E+02                   4 
C10H18                  C  10H  18O   0N   0G    200.00   2000.00  662.56      1
-1.13730317E+00 1.07579248E-01-6.49706524E-05 1.68335032E-08-9.01880442E-13    2
-3.95214410E+03 4.16408642E+01-1.13730317E+00 1.07579248E-01-6.49706524E-05    3
 1.68335032E-08-9.01880442E-13-3.95214410E+03 4.16408642E+01                   4 
C15H32(L)               C  15H  32O   0N   0G    200.00   2000.00  725.85      1
-3.07117892E+00 1.84041691E-01-1.12916317E-04 3.00970186E-08-1.81052422E-12    2
-4.91521519E+04 5.89434246E+01 2.71238045E+01-1.89115468E-01 1.84568087E-03    3
-4.05410294E-06 3.00893630E-09-6.03413642E+04-7.33602534E+01                   4 
C15H32                  C  15H  32O   0N   0G    200.00   2000.00  725.85      1
-3.07117892E+00 1.84041691E-01-1.12916317E-04 3.00970186E-08-1.81052422E-12    2
-4.91521519E+04 5.89434246E+01-3.07117892E+00 1.84041691E-01-1.12916317E-04    3
 3.00970186E-08-1.81052422E-12-4.91521519E+04 5.89434246E+01                   4 
C15H30(L)               C  15H  30O   0N   0G    200.00   2000.00  732.33      1
-2.94964105E+00 1.78127773E-01-1.11466041E-04 3.12251568E-08-2.36218681E-12    2
-3.38492455E+04 5.93767001E+01 3.28097963E+01-2.60554951E-01 2.18201800E-03    3
-4.72876779E-06 3.48955307E-09-4.74962936E+04-9.81686158E+01                   4 
C15H30                  C  15H  30O   0N   0G    200.00   2000.00  732.33      1
-2.94964105E+00 1.78127773E-01-1.11466041E-04 3.12251568E-08-2.36218681E-12    2
-3.38492455E+04 5.93767001E+01-2.94964105E+00 1.78127773E-01-1.11466041E-04    3
 3.12251568E-08-2.36218681E-12-3.38492455E+04 5.93767001E+01                   4 
C15H28(L)               C  15H  28O   0N   0G    200.00   2000.00  738.35      1
-2.82810319E+00 1.72213855E-01-1.10015764E-04 3.23532949E-08-2.91384939E-12    2
-1.85463392E+04 5.84236812E+01 3.82661344E+01-3.28229314E-01 2.49615358E-03    3
-5.35126473E-06 3.92746702E-09-3.46484353E+04-1.23559126E+02                   4 
C15H28                  C  15H  28O   0N   0G    200.00   2000.00  738.35      1
-2.82810319E+00 1.72213855E-01-1.10015764E-04 3.23532949E-08-2.91384939E-12    2
-1.85463392E+04 5.84236812E+01-2.82810319E+00 1.72213855E-01-1.10015764E-04    3
 3.23532949E-08-2.91384939E-12-1.85463392E+04 5.84236812E+01                   4 
C21H44(L)               C  21H  44O   0N   0G    200.00   2000.00  796.62      1
-5.10013893E+00 2.61603220E-01-1.66970451E-04 4.87207687E-08-4.22488696E-12    2
-6.66651860E+04 7.90828051E+01 2.64381499E+01-9.04021529E-02 1.58441248E-03    3
-3.37581556E-06 2.35869539E-09-8.20620105E+04-6.77291645E+01                   4 
C21H44                  C  21H  44O   0N   0G    200.00   2000.00  796.62      1
-5.10013893E+00 2.61603220E-01-1.66970451E-04 4.87207687E-08-4.22488696E-12    2
-6.66651860E+04 7.90828051E+01-5.10013893E+00 2.61603220E-01-1.66970451E-04    3
 4.87207687E-08-4.22488696E-12-6.66651860E+04 7.90828051E+01                   4 
C21H42(L)               C  21H  42O   0N   0G    200.00   2000.00  801.41      1
-4.97860107E+00 2.55689302E-01-1.65520174E-04 4.98489069E-08-4.77654954E-12    2
-5.13622796E+04 7.95160805E+01 3.12377164E+01-1.46288616E-01 1.82880900E-03    3
-3.83636705E-06 2.66726554E-09-6.93781916E+04-8.97186018E+01                   4 
C21H42                  C  21H  42O   0N   0G    200.00   2000.00  801.41      1
-4.97860107E+00 2.55689302E-01-1.65520174E-04 4.98489069E-08-4.77654954E-12    2
-5.13622796E+04 7.95160805E+01-4.97860107E+00 2.55689302E-01-1.65520174E-04    3
 4.98489069E-08-4.77654954E-12-5.13622796E+04 7.95160805E+01                   4 
C21H40(L)               C  21H  40O   0N   0G    200.00   2000.00  795.55      1
-4.85706320E+00 2.49775384E-01-1.64069898E-04 5.09770450E-08-5.32821212E-12    2
-3.60593733E+04 7.85630617E+01 3.59179280E+01-2.00301592E-01 2.06257044E-03    3
-4.27312748E-06 2.95737743E-09-5.55916725E+04-1.11289479E+02                   4 
C21H40                  C  21H  40O   0N   0G    200.00   2000.00  795.55      1
-4.85706320E+00 2.49775384E-01-1.64069898E-04 5.09770450E-08-5.32821212E-12    2
-3.60593733E+04 7.85630617E+01-4.85706320E+00 2.49775384E-01-1.64069898E-04    3
 5.09770450E-08-5.32821212E-12-3.60593733E+04 7.85630617E+01                   4 
C30H62(L)               C  30H  62O   0N   0G    200.00   2000.00  856.85      1
-8.14357896E+00 3.77945513E-01-2.48051652E-04 7.66563939E-08-7.84643106E-12    2
-9.29347372E+04 1.09291876E+02 1.28046731E+02-6.02537763E-01 2.93328853E-03    3
-4.62583356E-06 2.63919934E-09-1.27635532E+05-5.08781609E+02                   4 
C30H62                  C  30H  62O   0N   0G    200.00   2000.00  856.85      1
-8.14357896E+00 3.77945513E-01-2.48051652E-04 7.66563939E-08-7.84643106E-12    2
-9.29347372E+04 1.09291876E+02-8.14357896E+00 3.77945513E-01-2.48051652E-04    3
 7.66563939E-08-7.84643106E-12-9.29347372E+04 1.09291876E+02                   4 
C30H60(L)               C  30H  60O   0N   0G    200.00   2000.00  847.75      1
-8.02204109E+00 3.72031595E-01-2.46601375E-04 7.77845321E-08-8.39809364E-12    2
-7.76318308E+04 1.09725151E+02 1.43116210E+02-6.73201694E-01 3.19616694E-03    3
-5.14702646E-06 2.98277297E-09-1.16644895E+05-5.85510137E+02                   4 
C30H60                  C  30H  60O   0N   0G    200.00   2000.00  847.75      1
-8.02204109E+00 3.72031595E-01-2.46601375E-04 7.77845321E-08-8.39809364E-12    2
-7.76318308E+04 1.09725151E+02-8.02204109E+00 3.72031595E-01-2.46601375E-04    3
 7.77845321E-08-8.39809364E-12-7.76318308E+04 1.09725151E+02                   4 
C30H58(L)               C  30H  58O   0N   0G    200.00   2000.00  840.09      1
-7.90050323E+00 3.66117678E-01-2.45151098E-04 7.89126702E-08-8.94975623E-12    2
-6.23289244E+04 1.08772132E+02 1.57155236E+02-7.29630530E-01 3.39533936E-03    3
-5.55487021E-06 3.25703099E-09-1.05608180E+05-6.60016311E+02                   4 
C30H58                  C  30H  58O   0N   0G    200.00   2000.00  840.09      1
-7.90050323E+00 3.66117678E-01-2.45151098E-04 7.89126702E-08-8.94975623E-12    2
-6.23289244E+04 1.08772132E+02-7.90050323E+00 3.66117678E-01-2.45151098E-04    3
 7.89126702E-08-8.94975623E-12-6.23289244E+04 1.08772132E+02                   4 
C39H80(L)               C  39H  80O   0N   0G    200.00   2000.00  900.78      1
-1.11870190E+01 4.94287806E-01-3.29132853E-04 1.04592019E-07-1.14679752E-11    2
-1.19204288E+05 1.39500946E+02 1.60869789E+02-7.00383759E-01 3.37451843E-03    3
-5.10464803E-06 2.76594526E-09-1.63864819E+05-6.45497196E+02                   4 