ELEMENTS
C H O N HE
END
SPECIES

N2	HE

!MID-CHAINS
 P-C32H32-P  

!unreactive LMW
 C8H8        C16H16      C15H16      C24H24      C16H14      
 

END

REACTIONS
END