ELEMENTS
C H O N HE
END
SPECIES

N2	HE

!MID-CHAINS
 P-HDPE-P_S  P-HDPE-P    

!unreactive LMW
 C2H4        C4H6        C3H8        C3H6        NC6H12      
 NC16H32     NC30H60     

END

REACTIONS
END