ELEMENTS
C H O N HE
END
SPECIES

N2	HE

!MID-CHAINS
 P-C40H80-P_S P-C40H80-P  

!unreactive LMW
 C2H4        C4H6        C3H8        C3H6        NC7H14      
 C16H32      C30H60      

END

REACTIONS
END