THERMO
   300.0   1000.0   3000.0


N2                G 8/02N   2    0    0    0G   200.000  6000.00  1000.00      1
 2.95257637E+00 1.39690040E-03-4.92631603E-07 7.86010195E-11-4.60755204E-15    2
-9.23948688E+02 5.87188762E+00 3.53100528E+00-1.23660988E-04-5.02999433E-07    3
 2.43530612E-09-1.40881235E-12-1.04697628E+03 2.96747038E+00 0.00000000E+00    4

N2(L)             G 8/02N   2    0    0    0G   200.000  6000.00  1000.00      1
 2.95257637E+00 1.39690040E-03-4.92631603E-07 7.86010195E-11-4.60755204E-15    2
-9.23948688E+02 5.87188762E+00 3.53100528E+00-1.23660988E-04-5.02999433E-07    3
 2.43530612E-09-1.40881235E-12-1.04697628E+03 2.96747038E+00 0.00000000E+00    4

HE                      HE  1               G    200.00   3500.00  850.00      1
 2.50020615e+00-5.42576298e-07 4.63926302e-10-1.57302170e-13 1.82971406e-17    2
-7.45426807e+02 9.27648988e-01 2.49964853e+00 2.08151569e-06-4.16682427e-09    3
 3.47465907e-12-1.04992675e-15-7.45332012e+02 9.30248556e-01                   4

P-C16H16-P(L)           C  16H  16O   0N   0G    200.00   2000.00 2000.00      1
-1.28953533E+01 1.76725600E-01-1.34313062E-04 4.81944947E-08-6.26922383E-12    2
 1.46992810E+04 7.41361041E+01-1.28953533E+01 1.76725600E-01-1.34313062E-04    3
 4.81944947E-08-6.26922383E-12 1.46992810E+04 7.41361041E+01                   4 
P-C16H16-P              C  16H  16O   0N   0G    200.00   2000.00 2000.00      1
-1.28953533E+01 1.76725600E-01-1.34313062E-04 4.81944947E-08-6.26922383E-12    2
 1.46992810E+04 7.41361041E+01-1.28953533E+01 1.76725600E-01-1.34313062E-04    3
 4.81944947E-08-6.26922383E-12 1.46992810E+04 7.41361041E+01                   4 
P-C16H15-P(L)           C  16H  15O   0N   0G    200.00   2000.00 2000.00      1
-9.54703951E+00 1.58088630E-01-1.04134744E-04 2.55267633E-08-8.12710575E-14    2
 2.76372102E+04 5.78979648E+01-9.54703951E+00 1.58088630E-01-1.04134744E-04    3
 2.55267633E-08-8.12710575E-14 2.76372102E+04 5.78979648E+01                   4 
P-C16H15-P              C  16H  15O   0N   0G    200.00   2000.00 2000.00      1
-9.54703951E+00 1.58088630E-01-1.04134744E-04 2.55267633E-08-8.12710575E-14    2
 2.76372102E+04 5.78979648E+01-9.54703951E+00 1.58088630E-01-1.04134744E-04    3
 2.55267633E-08-8.12710575E-14 2.76372102E+04 5.78979648E+01                   4 
P-C16H17(L)             C  16H  17O   0N   0G    200.00   2000.00 2000.00      1
-1.19000278E+01 1.73297666E-01-1.27439449E-04 4.41175014E-08-5.48074306E-12    2
 1.25478739E+04 7.85985520E+01-1.19000278E+01 1.73297666E-01-1.27439449E-04    3
 4.41175014E-08-5.48074306E-12 1.25478739E+04 7.85985520E+01                   4 
P-C16H17                C  16H  17O   0N   0G    200.00   2000.00 2000.00      1
-1.19000278E+01 1.73297666E-01-1.27439449E-04 4.41175014E-08-5.48074306E-12    2
 1.25478739E+04 7.85985520E+01-1.19000278E+01 1.73297666E-01-1.27439449E-04    3
 4.41175014E-08-5.48074306E-12 1.25478739E+04 7.85985520E+01                   4 
P-C16H15(L)             C  16H  15O   0N   0G    200.00   2000.00 2000.00      1
-1.13979324E+01 1.78079851E-01-1.32602238E-04 4.72054451E-08-6.17412532E-12    2
 2.21992015E+04 7.74230393E+01-1.13979324E+01 1.78079851E-01-1.32602238E-04    3
 4.72054451E-08-6.17412532E-12 2.21992015E+04 7.74230393E+01                   4 
P-C16H15                C  16H  15O   0N   0G    200.00   2000.00 2000.00      1
-1.13979324E+01 1.78079851E-01-1.32602238E-04 4.72054451E-08-6.17412532E-12    2
 2.21992015E+04 7.74230393E+01-1.13979324E+01 1.78079851E-01-1.32602238E-04    3
 4.72054451E-08-6.17412532E-12 2.21992015E+04 7.74230393E+01                   4 
P-C16H16(L)             C  16H  16O   0N   0G    200.00   2000.00 2000.00      1
-8.55171399E+00 1.54660696E-01-9.72611316E-05 2.14497701E-08 7.07209712E-13    2
 2.54858031E+04 6.23604127E+01-8.55171399E+00 1.54660696E-01-9.72611316E-05    3
 2.14497701E-08 7.07209712E-13 2.54858031E+04 6.23604127E+01                   4 
P-C16H16                C  16H  16O   0N   0G    200.00   2000.00 2000.00      1
-8.55171399E+00 1.54660696E-01-9.72611316E-05 2.14497701E-08 7.07209712E-13    2
 2.54858031E+04 6.23604127E+01-8.55171399E+00 1.54660696E-01-9.72611316E-05    3
 2.14497701E-08 7.07209712E-13 2.54858031E+04 6.23604127E+01                   4 
P-C16H14(L)             C  16H  14O   0N   0G    200.00   2000.00 2000.00      1
-8.04961861E+00 1.59442881E-01-1.02423920E-04 2.45377137E-08 1.38274521E-14    2
 3.51371307E+04 6.11849000E+01-8.04961861E+00 1.59442881E-01-1.02423920E-04    3
 2.45377137E-08 1.38274521E-14 3.51371307E+04 6.11849000E+01                   4 
P-C16H14                C  16H  14O   0N   0G    200.00   2000.00 2000.00      1
-8.04961861E+00 1.59442881E-01-1.02423920E-04 2.45377137E-08 1.38274521E-14    2
 3.51371307E+04 6.11849000E+01-8.04961861E+00 1.59442881E-01-1.02423920E-04    3
 2.45377137E-08 1.38274521E-14 3.51371307E+04 6.11849000E+01                   4 
C8H10(L)                C   8H  10O   0N   0G    200.00   2000.00  652.94      1
-2.65141357E+00 7.09386736E-02-3.21850617E-05-6.20679347E-10 3.10816894E-12    2
-1.08117474E+03 4.84643715E+01 1.81100384E+01-2.04398237E-01 1.54863200E-03    3
-3.64226771E-06 2.99687606E-09-8.21391291E+03-4.14266253E+01                   4 
C8H10                   C   8H  10O   0N   0G    200.00   2000.00  652.94      1
-2.65141357E+00 7.09386736E-02-3.21850617E-05-6.20679347E-10 3.10816894E-12    2
-1.08117474E+03 4.84643715E+01-2.65141357E+00 7.09386736E-02-3.21850617E-05    3
-6.20679347E-10 3.10816894E-12-1.08117474E+03 4.84643715E+01                   4 
C8H8(L)                 C   8H   8O   0N   0G    200.00   2000.00  708.92      1
-5.48962328E+00 8.40554047E-02-6.86392945E-05 2.93124252E-08-5.10905001E-12    2
 1.61057135E+04 5.04599576E+01 1.60267500E+01-1.89794446E-01 1.39175627E-03    3
-3.07466348E-06 2.32840419E-09 8.65768345E+03-4.23217715E+01                   4 
C8H8                    C   8H   8O   0N   0G    200.00   2000.00  708.92      1
-5.48962328E+00 8.40554047E-02-6.86392945E-05 2.93124252E-08-5.10905001E-12    2
 1.61057135E+04 5.04599576E+01-5.48962328E+00 8.40554047E-02-6.86392945E-05    3
 2.93124252E-08-5.10905001E-12 1.61057135E+04 5.04599576E+01                   4 
C16H6(L)                C  16H   6O   0N   0G    200.00   2000.00 2000.00      1
-7.89213004E+00 1.98562842E-01-1.51542567E-04 5.85681699E-08-8.85255584E-12    2
 6.83044326E+04 7.60079239E+01-7.89213004E+00 1.98562842E-01-1.51542567E-04    3
 5.85681699E-08-8.85255584E-12 6.83044326E+04 7.60079239E+01                   4 
C16H6                   C  16H   6O   0N   0G    200.00   2000.00 2000.00      1
-7.89213004E+00 1.98562842E-01-1.51542567E-04 5.85681699E-08-8.85255584E-12    2
 6.83044326E+04 7.60079239E+01-7.89213004E+00 1.98562842E-01-1.51542567E-04    3
 5.85681699E-08-8.85255584E-12 6.83044326E+04 7.60079239E+01                   4 
C6H4(L)                 C   6H   4O   0N   0G    200.00   2000.00 2000.00      1
 .299142300E+01 .700064410E-03-.563382800E-07-.923157820E-11 .158275200E-14    2
-.835033800E+03-.135511000E+01 .329812400E+01 .824944120E-03-.814301470E-06    3
-.947543430E-10 .413487200E-12-.101252100E+04-.329409400E+01                   4
C6H4                    C   6H   4O   0N   0G    200.00   2000.00 2000.00      1
 .299142300E+01 .700064410E-03-.563382800E-07-.923157820E-11 .158275200E-14    2
-.835033800E+03-.135511000E+01 .329812400E+01 .824944120E-03-.814301470E-06    3
-.947543430E-10 .413487200E-12-.101252100E+04-.329409400E+01                   4
C16H18(L)               C  16H  18O   0N   0G    200.00   2000.00  808.37      1
-1.09047023E+01 1.69869732E-01-1.20565837E-04 4.00405082E-08-4.69226229E-12    2
 1.03964668E+04 8.30609999E+01 1.14248874E+01-7.26487692E-02 1.06933124E-03    3
-2.24773917E-06 1.54679639E-09-8.18951717E+02-2.19627113E+01                   4 
C16H18                  C  16H  18O   0N   0G    200.00   2000.00  808.37      1
-1.09047023E+01 1.69869732E-01-1.20565837E-04 4.00405082E-08-4.69226229E-12    2
 1.03964668E+04 8.30609999E+01-1.09047023E+01 1.69869732E-01-1.20565837E-04    3
 4.00405082E-08-4.69226229E-12 1.03964668E+04 8.30609999E+01                   4 
C16H16(L)               C  16H  16O   0N   0G    200.00   2000.00  843.56      1
-1.04026069E+01 1.74651917E-01-1.25728625E-04 4.31284518E-08-5.38564455E-12    2
 2.00477944E+04 8.25786345E+01 1.00212887E+01-3.60780204E-02 8.81707109E-04    3
-1.83409465E-06 1.22739389E-09 8.53976657E+03-1.61536905E+01                   4 
C16H16                  C  16H  16O   0N   0G    200.00   2000.00  843.56      1
-1.04026069E+01 1.74651917E-01-1.25728625E-04 4.31284518E-08-5.38564455E-12    2
 2.00477944E+04 8.25786345E+01-1.04026069E+01 1.74651917E-01-1.25728625E-04    3
 4.31284518E-08-5.38564455E-12 2.00477944E+04 8.25786345E+01                   4 
C16H14(L)               C  16H  14O   0N   0G    200.00   2000.00  878.80      1
-9.90051155E+00 1.79434102E-01-1.30891414E-04 4.62163954E-08-6.07902681E-12    2
 2.96991221E+04 8.07099746E+01 8.93923354E+00-5.36055553E-03 7.30526390E-04    3
-1.51069041E-06 9.84850440E-10 1.78895767E+04-1.27679500E+01                   4 
C16H14                  C  16H  14O   0N   0G    200.00   2000.00  878.80      1
-9.90051155E+00 1.79434102E-01-1.30891414E-04 4.62163954E-08-6.07902681E-12    2
 2.96991221E+04 8.07099746E+01-9.90051155E+00 1.79434102E-01-1.30891414E-04    3
 4.62163954E-08-6.07902681E-12 2.96991221E+04 8.07099746E+01                   4 
C24H26(L)               C  24H  26O   0N   0G    200.00   2000.00  902.24      1
-1.73523790E+01 2.58232532E-01-1.87722368E-04 6.41377555E-08-7.82687420E-12    2
 1.77461073E+04 1.20129052E+02 6.82432632E+00 2.85949049E-02 8.65842001E-04    3
-1.80379048E-06 1.15785893E-09 1.52350183E+03-1.83049594E+00                   4 
C24H26                  C  24H  26O   0N   0G    200.00   2000.00  902.24      1
-1.73523790E+01 2.58232532E-01-1.87722368E-04 6.41377555E-08-7.82687420E-12    2
 1.77461073E+04 1.20129052E+02-1.73523790E+01 2.58232532E-01-1.87722368E-04    3
 6.41377555E-08-7.82687420E-12 1.77461073E+04 1.20129052E+02                   4 
C24H24(L)               C  24H  24O   0N   0G    200.00   2000.00  928.53      1
-1.68502836E+01 2.63014717E-01-1.92885156E-04 6.72256992E-08-8.52025646E-12    2
 2.73974349E+04 1.19646686E+02 6.11839894E+00 5.27706877E-02 7.54354503E-04    3
-1.57573113E-06 9.93970289E-10 1.08570576E+04 1.69197201E+00                   4 
C24H24                  C  24H  24O   0N   0G    200.00   2000.00  928.53      1
-1.68502836E+01 2.63014717E-01-1.92885156E-04 6.72256992E-08-8.52025646E-12    2
 2.73974349E+04 1.19646686E+02-1.68502836E+01 2.63014717E-01-1.92885156E-04    3
 6.72256992E-08-8.52025646E-12 2.73974349E+04 1.19646686E+02                   4 
C24H22(L)               C  24H  22O   0N   0G    200.00   2000.00  947.05      1
-1.63481882E+01 2.67796902E-01-1.98047945E-04 7.03136428E-08-9.21363872E-12    2
 3.70487626E+04 1.17778027E+02 1.27835857E+01-1.77444673E-02 1.03499029E-03    3
-1.98868092E-06 1.18944969E-09 1.98293647E+04-2.24923480E+01                   4 
C24H22                  C  24H  22O   0N   0G    200.00   2000.00  947.05      1
-1.63481882E+01 2.67796902E-01-1.98047945E-04 7.03136428E-08-9.21363872E-12    2
 3.70487626E+04 1.17778027E+02-1.63481882E+01 2.67796902E-01-1.98047945E-04    3
 7.03136428E-08-9.21363872E-12 3.70487626E+04 1.17778027E+02                   4 
C16H17(L)               C  16H  17O   0N   0G    200.00   2000.00  808.53      1
-7.55638847E+00 1.51232762E-01-9.03875193E-05 1.73727768E-08 1.49569049E-12    2
 2.33343960E+04 6.68228606E+01 1.47739961E+01-9.12875299E-02 1.09951053E-03    3
-2.27040690E-06 1.55298434E-09 1.21098294E+04-3.82162280E+01                   4 
C16H17                  C  16H  17O   0N   0G    200.00   2000.00  808.53      1
-7.55638847E+00 1.51232762E-01-9.03875193E-05 1.73727768E-08 1.49569049E-12    2
 2.33343960E+04 6.68228606E+01-7.55638847E+00 1.51232762E-01-9.03875193E-05    3
 1.73727768E-08 1.49569049E-12 2.33343960E+04 6.68228606E+01                   4 
C16H15(L)               C  16H  15O   0N   0G    200.00   2000.00  843.72      1
-7.05429309E+00 1.56014947E-01-9.55503077E-05 2.04607205E-08 8.02308228E-13    2
 3.29857236E+04 6.63404952E+01 1.33704735E+01-5.47169528E-02 9.11886498E-04    3
-1.85676238E-06 1.23358185E-09 2.14687415E+04-3.24070496E+01                   4 
C16H15                  C  16H  15O   0N   0G    200.00   2000.00  843.72      1
-7.05429309E+00 1.56014947E-01-9.55503077E-05 2.04607205E-08 8.02308228E-13    2
 3.29857236E+04 6.63404952E+01-7.05429309E+00 1.56014947E-01-9.55503077E-05    3
 2.04607205E-08 8.02308228E-13 3.29857236E+04 6.63404952E+01                   4 
C16H13(L)               C  16H  13O   0N   0G    200.00   2000.00  878.95      1
-6.55219772E+00 1.60797132E-01-1.00713096E-04 2.35486641E-08 1.08925970E-13    2
 4.26370512E+04 6.44718353E+01 1.22884983E+01-2.39996709E-02 7.60705885E-04    3
-1.53335815E-06 9.91038395E-10 3.08187151E+04-2.90205237E+01                   4 
C16H13                  C  16H  13O   0N   0G    200.00   2000.00  878.95      1
-6.55219772E+00 1.60797132E-01-1.00713096E-04 2.35486641E-08 1.08925970E-13    2
 4.26370512E+04 6.44718353E+01-6.55219772E+00 1.60797132E-01-1.00713096E-04    3
 2.35486641E-08 1.08925970E-13 4.26370512E+04 6.44718353E+01                   4 
C24H25(L)               C  24H  25O   0N   0G    200.00   2000.00  902.33      1
-1.40040651E+01 2.39595562E-01-1.57544050E-04 4.14700242E-08-1.63892143E-12    2
 3.06840365E+04 1.03890913E+02 1.01736452E+01 9.95567251E-03 8.96021554E-04    3
-1.82645821E-06 1.16404689E-09 1.44539844E+04-1.80817487E+01                   4 
C24H25                  C  24H  25O   0N   0G    200.00   2000.00  902.33      1
-1.40040651E+01 2.39595562E-01-1.57544050E-04 4.14700242E-08-1.63892143E-12    2
 3.06840365E+04 1.03890913E+02-1.40040651E+01 2.39595562E-01-1.57544050E-04    3
 4.14700242E-08-1.63892143E-12 3.06840365E+04 1.03890913E+02                   4 
C24H23(L)               C  24H  23O   0N   0G    200.00   2000.00  928.63      1
-1.35019698E+01 2.44377747E-01-1.62706839E-04 4.45579678E-08-2.33230369E-12    2
 4.03353641E+04 1.03408547E+02 9.46777975E+00 3.41313133E-02 7.84534136E-04    3
-1.59839886E-06 1.00015824E-09 2.37874639E+04-1.45595050E+01                   4 
C24H23                  C  24H  23O   0N   0G    200.00   2000.00  928.63      1
-1.35019698E+01 2.44377747E-01-1.62706839E-04 4.45579678E-08-2.33230369E-12    2
 4.03353641E+04 1.03408547E+02-1.35019698E+01 2.44377747E-01-1.62706839E-04    3
 4.45579678E-08-2.33230369E-12 4.03353641E+04 1.03408547E+02                   4 
C24H21(L)               C  24H  21O   0N   0G    200.00   2000.00  947.15      1
-1.29998744E+01 2.49159932E-01-1.67869627E-04 4.76459114E-08-3.02568595E-12    2
 4.99866917E+04 1.01539887E+02 1.61330349E+01-3.63839980E-02 1.06517000E-03    3
-2.01134865E-06 1.19563764E-09 3.27596346E+04-3.87443671E+01                   4 
C24H21                  C  24H  21O   0N   0G    200.00   2000.00  947.15      1
-1.29998744E+01 2.49159932E-01-1.67869627E-04 4.76459114E-08-3.02568595E-12    2
 4.99866917E+04 1.01539887E+02-1.29998744E+01 2.49159932E-01-1.67869627E-04    3
 4.76459114E-08-3.02568595E-12 4.99866917E+04 1.01539887E+02                   4 
C7H8(L)                 C   7H   8O   0N   0G    200.00   2000.00  644.91      1
-3.31386413E+00 6.29428176E-02-3.42855480E-05 4.50654065E-09 1.39787142E-12    2
 4.52244760E+03 3.93651354E+01 1.79622314E+01-2.22795232E-01 1.61664921E-03    3
-3.82805071E-06 3.17706358E-09-2.49957962E+03-5.19870370E+01                   4 
C7H8                    C   7H   8O   0N   0G    200.00   2000.00  644.91      1
-3.31386413E+00 6.29428176E-02-3.42855480E-05 4.50654065E-09 1.39787142E-12    2
 4.52244760E+03 3.93651354E+01-3.31386413E+00 6.29428176E-02-3.42855480E-05    3
 4.50654065E-09 1.39787142E-12 4.52244760E+03 3.93651354E+01                   4 
C9H10(L)                C   9H  10O   0N   0G    200.00   2000.00  711.07      1
-4.20138996E+00 8.97428768E-02-6.60001551E-05 2.39136254E-08-3.23197173E-12    2
 1.13498782E+04 4.60883853E+01 1.74181962E+01-1.84586144E-01 1.39453902E-03    3
-3.07423378E-06 2.32116437E-09 3.79407988E+03-4.73197198E+01                   4 
C9H10                   C   9H  10O   0N   0G    200.00   2000.00  711.07      1
-4.20138996E+00 8.97428768E-02-6.60001551E-05 2.39136254E-08-3.23197173E-12    2
 1.13498782E+04 4.60883853E+01-4.20138996E+00 8.97428768E-02-6.60001551E-05    3
 2.39136254E-08-3.23197173E-12 1.13498782E+04 4.60883853E+01                   4 
C15H16(L)               C  15H  16O   0N   0G    200.00   2000.00  812.27      1
-9.01859040E+00 1.48230651E-01-9.65546347E-05 2.65039174E-08-1.72975212E-12    2
 1.42102883E+04 7.31218555E+01 1.28360696E+01-8.83763580E-02 1.06246734E-03    3
-2.19759173E-06 1.50356837E-09 3.05501293E+03-2.99687548E+01                   4 
C15H16                  C  15H  16O   0N   0G    200.00   2000.00  812.27      1
-9.01859040E+00 1.48230651E-01-9.65546347E-05 2.65039174E-08-1.72975212E-12    2
 1.42102883E+04 7.31218555E+01-9.01859040E+00 1.48230651E-01-9.65546347E-05    3
 2.65039174E-08-1.72975212E-12 1.42102883E+04 7.31218555E+01                   4 
C15H15_T(L)             C  15H  15O   0N   0G    200.00   2000.00  812.37      1
-9.29219529E+00 1.49823320E-01-1.03270861E-04 3.20173111E-08-3.20029820E-12    2
 2.91542302E+04 7.30652773E+01 1.25622869E+01-8.67832516E-02 1.05575088E-03    3
-2.19207834E-06 1.50209782E-09 1.79936659E+04-3.00311743E+01                   4 
C15H15_T                C  15H  15O   0N   0G    200.00   2000.00  812.37      1
-9.29219529E+00 1.49823320E-01-1.03270861E-04 3.20173111E-08-3.20029820E-12    2
 2.91542302E+04 7.30652773E+01-9.29219529E+00 1.49823320E-01-1.03270861E-04    3
 3.20173111E-08-3.20029820E-12 2.91542302E+04 7.30652773E+01                   4 
C9H12(L)                C   9H  12O   0N   0G    200.00   2000.00  660.50      1
-6.34313753E+00 1.03146012E-01-7.74205086E-05 2.94798516E-08-4.52016055E-12    2
-7.66995178E+02 5.59320924E+01 1.39801441E+01-1.63246276E-01 1.44313973E-03    3
-3.44849872E-06 2.83390474E-09-8.01266723E+03-3.27494379E+01                   4 
C9H12                   C   9H  12O   0N   0G    200.00   2000.00  660.50      1
-6.34313753E+00 1.03146012E-01-7.74205086E-05 2.94798516E-08-4.52016055E-12    2
-7.66995178E+02 5.59320924E+01-6.34313753E+00 1.03146012E-01-7.74205086E-05    3
 2.94798516E-08-4.52016055E-12-7.66995178E+02 5.59320924E+01                   4 
C6H6(L)                 C   6H   6O   0N   0G    200.00   2000.00  611.00      1
-5.95812541E+00 6.65698546E-02-5.30943646E-05 2.10796410E-08-3.19645263E-12    2
 9.21427092E+03 5.06268658E+01 1.87641608E+01-2.86918623E-01 2.05607687E-03    3
-5.07034148E-06 4.38804030E-09 2.33402880E+03-5.15700555E+01                   4 
C6H6                    C   6H   6O   0N   0G    200.00   2000.00  611.00      1
-5.95812541E+00 6.65698546E-02-5.30943646E-05 2.10796410E-08-3.19645263E-12    2
 9.21427092E+03 5.06268658E+01-5.95812541E+00 6.65698546E-02-5.30943646E-05    3
 2.10796410E-08-3.19645263E-12 9.21427092E+03 5.06268658E+01                   4 
C2H4(L)                 C   2H   4O   0N   0G    200.00   2000.00 2000.00      1
 5.52229738E-01 1.73771352E-02-7.04428529E-06-3.10197256E-10 6.99587116E-13    2
 5.44752973E+03 1.47741955E+01 5.52229738E-01 1.73771352E-02-7.04428529E-06    3
-3.10197256E-10 6.99587116E-13 5.44752973E+03 1.47741955E+01                   4 
C2H4                    C   2H   4O   0N   0G    200.00   2000.00 2000.00      1
 5.52229738E-01 1.73771352E-02-7.04428529E-06-3.10197256E-10 6.99587116E-13    2
 5.44752973E+03 1.47741955E+01 5.52229738E-01 1.73771352E-02-7.04428529E-06    3
-3.10197256E-10 6.99587116E-13 5.44752973E+03 1.47741955E+01                   4 
C3H6(L)                 C   3H   6O   0N   0G    200.00   2000.00 2000.00      1
 1.43451610E+00 2.29623781E-02-3.57660669E-06-5.98693905E-09 2.51118188E-12    2
 1.06782396E+03 1.33244362E+01 1.43451610E+00 2.29623781E-02-3.57660669E-06    3
-5.98693905E-09 2.51118188E-12 1.06782396E+03 1.33244362E+01                   4 
C3H6                    C   3H   6O   0N   0G    200.00   2000.00 2000.00      1
 1.43451610E+00 2.29623781E-02-3.57660669E-06-5.98693905E-09 2.51118188E-12    2
 1.06782396E+03 1.33244362E+01 1.43451610E+00 2.29623781E-02-3.57660669E-06    3
-5.98693905E-09 2.51118188E-12 1.06782396E+03 1.33244362E+01                   4 
C4H8-1(L)               C   4H   8O   0N   0G    200.00   2000.00 2000.00      1
 .299142300E+01 .700064410E-03-.563382800E-07-.923157820E-11 .158275200E-14    2
-.835033800E+03-.135511000E+01 .329812400E+01 .824944120E-03-.814301470E-06    3
-.947543430E-10 .413487200E-12-.101252100E+04-.329409400E+01                   4
C4H8-1                  C   4H   8O   0N   0G    200.00   2000.00 2000.00      1
 .299142300E+01 .700064410E-03-.563382800E-07-.923157820E-11 .158275200E-14    2
-.835033800E+03-.135511000E+01 .329812400E+01 .824944120E-03-.814301470E-06    3
-.947543430E-10 .413487200E-12-.101252100E+04-.329409400E+01                   4
END