THERMO
   300.0   1000.0   3000.0


N2                G 8/02N   2    0    0    0G   200.000  6000.00  1000.00      1
 2.95257637E+00 1.39690040E-03-4.92631603E-07 7.86010195E-11-4.60755204E-15    2
-9.23948688E+02 5.87188762E+00 3.53100528E+00-1.23660988E-04-5.02999433E-07    3
 2.43530612E-09-1.40881235E-12-1.04697628E+03 2.96747038E+00 0.00000000E+00    4

N2(L)             G 8/02N   2    0    0    0G   200.000  6000.00  1000.00      1
 2.95257637E+00 1.39690040E-03-4.92631603E-07 7.86010195E-11-4.60755204E-15    2
-9.23948688E+02 5.87188762E+00 3.53100528E+00-1.23660988E-04-5.02999433E-07    3
 2.43530612E-09-1.40881235E-12-1.04697628E+03 2.96747038E+00 0.00000000E+00    4

HE                      HE  1               G    200.00   3500.00  850.00      1
 2.50020615e+00-5.42576298e-07 4.63926302e-10-1.57302170e-13 1.82971406e-17    2
-7.45426807e+02 9.27648988e-01 2.49964853e+00 2.08151569e-06-4.16682427e-09    3
 3.47465907e-12-1.04992675e-15-7.45332012e+02 9.30248556e-01                   4

P-IC21H42-P(L)          C  21H  42O   0N   0G    300.00   5000.00 1000.00      1
 .299142300E+01 .700064410E-03-.563382800E-07-.923157820E-11 .158275200E-14    2
-.835033800E+03-.135511000E+01 .329812400E+01 .824944120E-03-.814301470E-06    3
-.947543430E-10 .413487200E-12-.101252100E+04-.329409400E+01                   4
P-IC21H42-P             C  21H  42O   0N   0G    300.00   5000.00 1000.00      1
 .299142300E+01 .700064410E-03-.563382800E-07-.923157820E-11 .158275200E-14    2
-.835033800E+03-.135511000E+01 .329812400E+01 .824944120E-03-.814301470E-06    3
-.947543430E-10 .413487200E-12-.101252100E+04-.329409400E+01                   4
P-IC21H41-P(L)          C  21H  41O   0N   0G    300.00   5000.00 1000.00      1
 .299142300E+01 .700064410E-03-.563382800E-07-.923157820E-11 .158275200E-14    2
-.835033800E+03-.135511000E+01 .329812400E+01 .824944120E-03-.814301470E-06    3
-.947543430E-10 .413487200E-12-.101252100E+04-.329409400E+01                   4
P-IC21H41-P             C  21H  41O   0N   0G    300.00   5000.00 1000.00      1
 .299142300E+01 .700064410E-03-.563382800E-07-.923157820E-11 .158275200E-14    2
-.835033800E+03-.135511000E+01 .329812400E+01 .824944120E-03-.814301470E-06    3
-.947543430E-10 .413487200E-12-.101252100E+04-.329409400E+01                   4
P-IC21H43t(L)           C  21H  43O   0N   0G    300.00   5000.00 1000.00      1
 .299142300E+01 .700064410E-03-.563382800E-07-.923157820E-11 .158275200E-14    2
-.835033800E+03-.135511000E+01 .329812400E+01 .824944120E-03-.814301470E-06    3
-.947543430E-10 .413487200E-12-.101252100E+04-.329409400E+01                   4
P-IC21H43t              C  21H  43O   0N   0G    300.00   5000.00 1000.00      1
 .299142300E+01 .700064410E-03-.563382800E-07-.923157820E-11 .158275200E-14    2
-.835033800E+03-.135511000E+01 .329812400E+01 .824944120E-03-.814301470E-06    3
-.947543430E-10 .413487200E-12-.101252100E+04-.329409400E+01                   4
P-IC21H43h(L)           C  21H  43O   0N   0G    300.00   5000.00 1000.00      1
 .299142300E+01 .700064410E-03-.563382800E-07-.923157820E-11 .158275200E-14    2
-.835033800E+03-.135511000E+01 .329812400E+01 .824944120E-03-.814301470E-06    3
-.947543430E-10 .413487200E-12-.101252100E+04-.329409400E+01                   4
P-IC21H43h              C  21H  43O   0N   0G    300.00   5000.00 1000.00      1
 .299142300E+01 .700064410E-03-.563382800E-07-.923157820E-11 .158275200E-14    2
-.835033800E+03-.135511000E+01 .329812400E+01 .824944120E-03-.814301470E-06    3
-.947543430E-10 .413487200E-12-.101252100E+04-.329409400E+01                   4
P-IC21H41t(L)           C  21H  41O   0N   0G    300.00   5000.00 1000.00      1
 .299142300E+01 .700064410E-03-.563382800E-07-.923157820E-11 .158275200E-14    2
-.835033800E+03-.135511000E+01 .329812400E+01 .824944120E-03-.814301470E-06    3
-.947543430E-10 .413487200E-12-.101252100E+04-.329409400E+01                   4
P-IC21H41t              C  21H  41O   0N   0G    300.00   5000.00 1000.00      1
 .299142300E+01 .700064410E-03-.563382800E-07-.923157820E-11 .158275200E-14    2
-.835033800E+03-.135511000E+01 .329812400E+01 .824944120E-03-.814301470E-06    3
-.947543430E-10 .413487200E-12-.101252100E+04-.329409400E+01                   4
P-IC21H41h(L)           C  21H  41O   0N   0G    300.00   5000.00 1000.00      1
 .299142300E+01 .700064410E-03-.563382800E-07-.923157820E-11 .158275200E-14    2
-.835033800E+03-.135511000E+01 .329812400E+01 .824944120E-03-.814301470E-06    3
-.947543430E-10 .413487200E-12-.101252100E+04-.329409400E+01                   4
P-IC21H41h              C  21H  41O   0N   0G    300.00   5000.00 1000.00      1
 .299142300E+01 .700064410E-03-.563382800E-07-.923157820E-11 .158275200E-14    2
-.835033800E+03-.135511000E+01 .329812400E+01 .824944120E-03-.814301470E-06    3
-.947543430E-10 .413487200E-12-.101252100E+04-.329409400E+01                   4
P-IC21H42t(L)           C  21H  42O   0N   0G    300.00   5000.00 1000.00      1
 .299142300E+01 .700064410E-03-.563382800E-07-.923157820E-11 .158275200E-14    2
-.835033800E+03-.135511000E+01 .329812400E+01 .824944120E-03-.814301470E-06    3
-.947543430E-10 .413487200E-12-.101252100E+04-.329409400E+01                   4
P-IC21H42t              C  21H  42O   0N   0G    300.00   5000.00 1000.00      1
 .299142300E+01 .700064410E-03-.563382800E-07-.923157820E-11 .158275200E-14    2
-.835033800E+03-.135511000E+01 .329812400E+01 .824944120E-03-.814301470E-06    3
-.947543430E-10 .413487200E-12-.101252100E+04-.329409400E+01                   4
P-IC21H42t_T(L)         C  21H  42O   0N   0G    300.00   5000.00 1000.00      1
 .299142300E+01 .700064410E-03-.563382800E-07-.923157820E-11 .158275200E-14    2
-.835033800E+03-.135511000E+01 .329812400E+01 .824944120E-03-.814301470E-06    3
-.947543430E-10 .413487200E-12-.101252100E+04-.329409400E+01                   4
P-IC21H42t_T            C  21H  42O   0N   0G    300.00   5000.00 1000.00      1
 .299142300E+01 .700064410E-03-.563382800E-07-.923157820E-11 .158275200E-14    2
-.835033800E+03-.135511000E+01 .329812400E+01 .824944120E-03-.814301470E-06    3
-.947543430E-10 .413487200E-12-.101252100E+04-.329409400E+01                   4
P-IC21H42h(L)           C  21H  42O   0N   0G    300.00   5000.00 1000.00      1
 .299142300E+01 .700064410E-03-.563382800E-07-.923157820E-11 .158275200E-14    2
-.835033800E+03-.135511000E+01 .329812400E+01 .824944120E-03-.814301470E-06    3
-.947543430E-10 .413487200E-12-.101252100E+04-.329409400E+01                   4
P-IC21H42h              C  21H  42O   0N   0G    300.00   5000.00 1000.00      1
 .299142300E+01 .700064410E-03-.563382800E-07-.923157820E-11 .158275200E-14    2
-.835033800E+03-.135511000E+01 .329812400E+01 .824944120E-03-.814301470E-06    3
-.947543430E-10 .413487200E-12-.101252100E+04-.329409400E+01                   4
P-IC21H42h_T(L)         C  21H  42O   0N   0G    300.00   5000.00 1000.00      1
 .299142300E+01 .700064410E-03-.563382800E-07-.923157820E-11 .158275200E-14    2
-.835033800E+03-.135511000E+01 .329812400E+01 .824944120E-03-.814301470E-06    3
-.947543430E-10 .413487200E-12-.101252100E+04-.329409400E+01                   4
P-IC21H42h_T            C  21H  42O   0N   0G    300.00   5000.00 1000.00      1
 .299142300E+01 .700064410E-03-.563382800E-07-.923157820E-11 .158275200E-14    2
-.835033800E+03-.135511000E+01 .329812400E+01 .824944120E-03-.814301470E-06    3
-.947543430E-10 .413487200E-12-.101252100E+04-.329409400E+01                   4
P-IC21H40t(L)           C  21H  40O   0N   0G    300.00   5000.00 1000.00      1
 .299142300E+01 .700064410E-03-.563382800E-07-.923157820E-11 .158275200E-14    2
-.835033800E+03-.135511000E+01 .329812400E+01 .824944120E-03-.814301470E-06    3
-.947543430E-10 .413487200E-12-.101252100E+04-.329409400E+01                   4
P-IC21H40t              C  21H  40O   0N   0G    300.00   5000.00 1000.00      1
 .299142300E+01 .700064410E-03-.563382800E-07-.923157820E-11 .158275200E-14    2
-.835033800E+03-.135511000E+01 .329812400E+01 .824944120E-03-.814301470E-06    3
-.947543430E-10 .413487200E-12-.101252100E+04-.329409400E+01                   4
P-IC21H40t_A(L)         C  21H  40O   0N   0G    300.00   5000.00 1000.00      1
 .299142300E+01 .700064410E-03-.563382800E-07-.923157820E-11 .158275200E-14    2
-.835033800E+03-.135511000E+01 .329812400E+01 .824944120E-03-.814301470E-06    3
-.947543430E-10 .413487200E-12-.101252100E+04-.329409400E+01                   4
P-IC21H40t_A            C  21H  40O   0N   0G    300.00   5000.00 1000.00      1
 .299142300E+01 .700064410E-03-.563382800E-07-.923157820E-11 .158275200E-14    2
-.835033800E+03-.135511000E+01 .329812400E+01 .824944120E-03-.814301470E-06    3
-.947543430E-10 .413487200E-12-.101252100E+04-.329409400E+01                   4
P-IC21H40h(L)           C  21H  40O   0N   0G    300.00   5000.00 1000.00      1
 .299142300E+01 .700064410E-03-.563382800E-07-.923157820E-11 .158275200E-14    2
-.835033800E+03-.135511000E+01 .329812400E+01 .824944120E-03-.814301470E-06    3
-.947543430E-10 .413487200E-12-.101252100E+04-.329409400E+01                   4
P-IC21H40h              C  21H  40O   0N   0G    300.00   5000.00 1000.00      1
 .299142300E+01 .700064410E-03-.563382800E-07-.923157820E-11 .158275200E-14    2
-.835033800E+03-.135511000E+01 .329812400E+01 .824944120E-03-.814301470E-06    3
-.947543430E-10 .413487200E-12-.101252100E+04-.329409400E+01                   4
P-IC21H40h_A(L)         C  21H  40O   0N   0G    300.00   5000.00 1000.00      1
 .299142300E+01 .700064410E-03-.563382800E-07-.923157820E-11 .158275200E-14    2
-.835033800E+03-.135511000E+01 .329812400E+01 .824944120E-03-.814301470E-06    3
-.947543430E-10 .413487200E-12-.101252100E+04-.329409400E+01                   4
P-IC21H40h_A            C  21H  40O   0N   0G    300.00   5000.00 1000.00      1
 .299142300E+01 .700064410E-03-.563382800E-07-.923157820E-11 .158275200E-14    2
-.835033800E+03-.135511000E+01 .329812400E+01 .824944120E-03-.814301470E-06    3
-.947543430E-10 .413487200E-12-.101252100E+04-.329409400E+01                   4
C2H6(L)                 C   2H   6O   0N   0G    300.00   5000.00 1000.00      1
 .299142300E+01 .700064410E-03-.563382800E-07-.923157820E-11 .158275200E-14    2
-.835033800E+03-.135511000E+01 .329812400E+01 .824944120E-03-.814301470E-06    3
-.947543430E-10 .413487200E-12-.101252100E+04-.329409400E+01                   4
C2H6                    C   2H   6O   0N   0G    300.00   5000.00 1000.00      1
 .299142300E+01 .700064410E-03-.563382800E-07-.923157820E-11 .158275200E-14    2
-.835033800E+03-.135511000E+01 .329812400E+01 .824944120E-03-.814301470E-06    3
-.947543430E-10 .413487200E-12-.101252100E+04-.329409400E+01                   4
C3H8(L)                 C   3H   8O   0N   0G    300.00   5000.00 1000.00      1
 .299142300E+01 .700064410E-03-.563382800E-07-.923157820E-11 .158275200E-14    2
-.835033800E+03-.135511000E+01 .329812400E+01 .824944120E-03-.814301470E-06    3
-.947543430E-10 .413487200E-12-.101252100E+04-.329409400E+01                   4
C3H8                    C   3H   8O   0N   0G    300.00   5000.00 1000.00      1
 .299142300E+01 .700064410E-03-.563382800E-07-.923157820E-11 .158275200E-14    2
-.835033800E+03-.135511000E+01 .329812400E+01 .824944120E-03-.814301470E-06    3
-.947543430E-10 .413487200E-12-.101252100E+04-.329409400E+01                   4
IC4H10(L)               C   4H  10O   0N   0G    300.00   5000.00 1000.00      1
 .299142300E+01 .700064410E-03-.563382800E-07-.923157820E-11 .158275200E-14    2
-.835033800E+03-.135511000E+01 .329812400E+01 .824944120E-03-.814301470E-06    3
-.947543430E-10 .413487200E-12-.101252100E+04-.329409400E+01                   4
IC4H10                  C   4H  10O   0N   0G    300.00   5000.00 1000.00      1
 .299142300E+01 .700064410E-03-.563382800E-07-.923157820E-11 .158275200E-14    2
-.835033800E+03-.135511000E+01 .329812400E+01 .824944120E-03-.814301470E-06    3
-.947543430E-10 .413487200E-12-.101252100E+04-.329409400E+01                   4
NC5H12(L)               C   5H  12O   0N   0G    300.00   5000.00 1000.00      1
 .299142300E+01 .700064410E-03-.563382800E-07-.923157820E-11 .158275200E-14    2
-.835033800E+03-.135511000E+01 .329812400E+01 .824944120E-03-.814301470E-06    3
-.947543430E-10 .413487200E-12-.101252100E+04-.329409400E+01                   4
NC5H12                  C   5H  12O   0N   0G    300.00   5000.00 1000.00      1
 .299142300E+01 .700064410E-03-.563382800E-07-.923157820E-11 .158275200E-14    2
-.835033800E+03-.135511000E+01 .329812400E+01 .824944120E-03-.814301470E-06    3
-.947543430E-10 .413487200E-12-.101252100E+04-.329409400E+01                   4
IC6H14(L)               C   6H  14O   0N   0G    300.00   5000.00 1000.00      1
 .299142300E+01 .700064410E-03-.563382800E-07-.923157820E-11 .158275200E-14    2
-.835033800E+03-.135511000E+01 .329812400E+01 .824944120E-03-.814301470E-06    3
-.947543430E-10 .413487200E-12-.101252100E+04-.329409400E+01                   4
IC6H14                  C   6H  14O   0N   0G    300.00   5000.00 1000.00      1
 .299142300E+01 .700064410E-03-.563382800E-07-.923157820E-11 .158275200E-14    2
-.835033800E+03-.135511000E+01 .329812400E+01 .824944120E-03-.814301470E-06    3
-.947543430E-10 .413487200E-12-.101252100E+04-.329409400E+01                   4
IC7H16(L)               C   7H  16O   0N   0G    300.00   5000.00 1000.00      1
 .299142300E+01 .700064410E-03-.563382800E-07-.923157820E-11 .158275200E-14    2
-.835033800E+03-.135511000E+01 .329812400E+01 .824944120E-03-.814301470E-06    3
-.947543430E-10 .413487200E-12-.101252100E+04-.329409400E+01                   4
IC7H16                  C   7H  16O   0N   0G    300.00   5000.00 1000.00      1
 .299142300E+01 .700064410E-03-.563382800E-07-.923157820E-11 .158275200E-14    2
-.835033800E+03-.135511000E+01 .329812400E+01 .824944120E-03-.814301470E-06    3
-.947543430E-10 .413487200E-12-.101252100E+04-.329409400E+01                   4
IC8H18(L)               C   8H  18O   0N   0G    300.00   5000.00 1000.00      1
 .299142300E+01 .700064410E-03-.563382800E-07-.923157820E-11 .158275200E-14    2
-.835033800E+03-.135511000E+01 .329812400E+01 .824944120E-03-.814301470E-06    3
-.947543430E-10 .413487200E-12-.101252100E+04-.329409400E+01                   4
IC8H18                  C   8H  18O   0N   0G    300.00   5000.00 1000.00      1
 .299142300E+01 .700064410E-03-.563382800E-07-.923157820E-11 .158275200E-14    2
-.835033800E+03-.135511000E+01 .329812400E+01 .824944120E-03-.814301470E-06    3
-.947543430E-10 .413487200E-12-.101252100E+04-.329409400E+01                   4
IC9H20(L)               C   9H  20O   0N   0G    300.00   5000.00 1000.00      1
 .299142300E+01 .700064410E-03-.563382800E-07-.923157820E-11 .158275200E-14    2
-.835033800E+03-.135511000E+01 .329812400E+01 .824944120E-03-.814301470E-06    3
-.947543430E-10 .413487200E-12-.101252100E+04-.329409400E+01                   4
IC9H20                  C   9H  20O   0N   0G    300.00   5000.00 1000.00      1
 .299142300E+01 .700064410E-03-.563382800E-07-.923157820E-11 .158275200E-14    2
-.835033800E+03-.135511000E+01 .329812400E+01 .824944120E-03-.814301470E-06    3
-.947543430E-10 .413487200E-12-.101252100E+04-.329409400E+01                   4
IC10H22(L)              C  10H  22O   0N   0G    300.00   5000.00 1000.00      1
 .299142300E+01 .700064410E-03-.563382800E-07-.923157820E-11 .158275200E-14    2
-.835033800E+03-.135511000E+01 .329812400E+01 .824944120E-03-.814301470E-06    3
-.947543430E-10 .413487200E-12-.101252100E+04-.329409400E+01                   4
IC10H22                 C  10H  22O   0N   0G    300.00   5000.00 1000.00      1
 .299142300E+01 .700064410E-03-.563382800E-07-.923157820E-11 .158275200E-14    2
-.835033800E+03-.135511000E+01 .329812400E+01 .824944120E-03-.814301470E-06    3
-.947543430E-10 .413487200E-12-.101252100E+04-.329409400E+01                   4
C3H6(L)                 C   3H   6O   0N   0G    300.00   5000.00 1000.00      1
 .299142300E+01 .700064410E-03-.563382800E-07-.923157820E-11 .158275200E-14    2
-.835033800E+03-.135511000E+01 .329812400E+01 .824944120E-03-.814301470E-06    3
-.947543430E-10 .413487200E-12-.101252100E+04-.329409400E+01                   4
C3H6                    C   3H   6O   0N   0G    300.00   5000.00 1000.00      1
 .299142300E+01 .700064410E-03-.563382800E-07-.923157820E-11 .158275200E-14    2
-.835033800E+03-.135511000E+01 .329812400E+01 .824944120E-03-.814301470E-06    3
-.947543430E-10 .413487200E-12-.101252100E+04-.329409400E+01                   4
IC4H8(L)                C   4H   8O   0N   0G    300.00   5000.00 1000.00      1
 .299142300E+01 .700064410E-03-.563382800E-07-.923157820E-11 .158275200E-14    2
-.835033800E+03-.135511000E+01 .329812400E+01 .824944120E-03-.814301470E-06    3
-.947543430E-10 .413487200E-12-.101252100E+04-.329409400E+01                   4
IC4H8                   C   4H   8O   0N   0G    300.00   5000.00 1000.00      1
 .299142300E+01 .700064410E-03-.563382800E-07-.923157820E-11 .158275200E-14    2
-.835033800E+03-.135511000E+01 .329812400E+01 .824944120E-03-.814301470E-06    3
-.947543430E-10 .413487200E-12-.101252100E+04-.329409400E+01                   4
C5H10_2(L)              C   5H  10O   0N   0G    300.00   5000.00 1000.00      1
 .299142300E+01 .700064410E-03-.563382800E-07-.923157820E-11 .158275200E-14    2
-.835033800E+03-.135511000E+01 .329812400E+01 .824944120E-03-.814301470E-06    3
-.947543430E-10 .413487200E-12-.101252100E+04-.329409400E+01                   4
C5H10_2                 C   5H  10O   0N   0G    300.00   5000.00 1000.00      1
 .299142300E+01 .700064410E-03-.563382800E-07-.923157820E-11 .158275200E-14    2
-.835033800E+03-.135511000E+01 .329812400E+01 .824944120E-03-.814301470E-06    3
-.947543430E-10 .413487200E-12-.101252100E+04-.329409400E+01                   4
IC6H12(L)               C   6H  12O   0N   0G    300.00   5000.00 1000.00      1
 .299142300E+01 .700064410E-03-.563382800E-07-.923157820E-11 .158275200E-14    2
-.835033800E+03-.135511000E+01 .329812400E+01 .824944120E-03-.814301470E-06    3
-.947543430E-10 .413487200E-12-.101252100E+04-.329409400E+01                   4
IC6H12                  C   6H  12O   0N   0G    300.00   5000.00 1000.00      1
 .299142300E+01 .700064410E-03-.563382800E-07-.923157820E-11 .158275200E-14    2
-.835033800E+03-.135511000E+01 .329812400E+01 .824944120E-03-.814301470E-06    3
-.947543430E-10 .413487200E-12-.101252100E+04-.329409400E+01                   4
IC7H14(L)               C   7H  14O   0N   0G    300.00   5000.00 1000.00      1
 .299142300E+01 .700064410E-03-.563382800E-07-.923157820E-11 .158275200E-14    2
-.835033800E+03-.135511000E+01 .329812400E+01 .824944120E-03-.814301470E-06    3
-.947543430E-10 .413487200E-12-.101252100E+04-.329409400E+01                   4
IC7H14                  C   7H  14O   0N   0G    300.00   5000.00 1000.00      1
 .299142300E+01 .700064410E-03-.563382800E-07-.923157820E-11 .158275200E-14    2
-.835033800E+03-.135511000E+01 .329812400E+01 .824944120E-03-.814301470E-06    3
-.947543430E-10 .413487200E-12-.101252100E+04-.329409400E+01                   4
IC8H16(L)               C   8H  16O   0N   0G    300.00   5000.00 1000.00      1
 .299142300E+01 .700064410E-03-.563382800E-07-.923157820E-11 .158275200E-14    2
-.835033800E+03-.135511000E+01 .329812400E+01 .824944120E-03-.814301470E-06    3
-.947543430E-10 .413487200E-12-.101252100E+04-.329409400E+01                   4
IC8H16                  C   8H  16O   0N   0G    300.00   5000.00 1000.00      1
 .299142300E+01 .700064410E-03-.563382800E-07-.923157820E-11 .158275200E-14    2
-.835033800E+03-.135511000E+01 .329812400E+01 .824944120E-03-.814301470E-06    3
-.947543430E-10 .413487200E-12-.101252100E+04-.329409400E+01                   4
IC9H18(L)               C   9H  18O   0N   0G    300.00   5000.00 1000.00      1
 .299142300E+01 .700064410E-03-.563382800E-07-.923157820E-11 .158275200E-14    2
-.835033800E+03-.135511000E+01 .329812400E+01 .824944120E-03-.814301470E-06    3
-.947543430E-10 .413487200E-12-.101252100E+04-.329409400E+01                   4
IC9H18                  C   9H  18O   0N   0G    300.00   5000.00 1000.00      1
 .299142300E+01 .700064410E-03-.563382800E-07-.923157820E-11 .158275200E-14    2
-.835033800E+03-.135511000E+01 .329812400E+01 .824944120E-03-.814301470E-06    3
-.947543430E-10 .413487200E-12-.101252100E+04-.329409400E+01                   4
IC10H20(L)              C  10H  20O   0N   0G    300.00   5000.00 1000.00      1
 .299142300E+01 .700064410E-03-.563382800E-07-.923157820E-11 .158275200E-14    2
-.835033800E+03-.135511000E+01 .329812400E+01 .824944120E-03-.814301470E-06    3
-.947543430E-10 .413487200E-12-.101252100E+04-.329409400E+01                   4
IC10H20                 C  10H  20O   0N   0G    300.00   5000.00 1000.00      1
 .299142300E+01 .700064410E-03-.563382800E-07-.923157820E-11 .158275200E-14    2
-.835033800E+03-.135511000E+01 .329812400E+01 .824944120E-03-.814301470E-06    3
-.947543430E-10 .413487200E-12-.101252100E+04-.329409400E+01                   4
IC6H10(L)               C   6H  10O   0N   0G    300.00   5000.00 1000.00      1
 .299142300E+01 .700064410E-03-.563382800E-07-.923157820E-11 .158275200E-14    2
-.835033800E+03-.135511000E+01 .329812400E+01 .824944120E-03-.814301470E-06    3
-.947543430E-10 .413487200E-12-.101252100E+04-.329409400E+01                   4
IC6H10                  C   6H  10O   0N   0G    300.00   5000.00 1000.00      1
 .299142300E+01 .700064410E-03-.563382800E-07-.923157820E-11 .158275200E-14    2
-.835033800E+03-.135511000E+01 .329812400E+01 .824944120E-03-.814301470E-06    3
-.947543430E-10 .413487200E-12-.101252100E+04-.329409400E+01                   4
IC7H12(L)               C   7H  12O   0N   0G    300.00   5000.00 1000.00      1
 .299142300E+01 .700064410E-03-.563382800E-07-.923157820E-11 .158275200E-14    2
-.835033800E+03-.135511000E+01 .329812400E+01 .824944120E-03-.814301470E-06    3
-.947543430E-10 .413487200E-12-.101252100E+04-.329409400E+01                   4
IC7H12                  C   7H  12O   0N   0G    300.00   5000.00 1000.00      1
 .299142300E+01 .700064410E-03-.563382800E-07-.923157820E-11 .158275200E-14    2
-.835033800E+03-.135511000E+01 .329812400E+01 .824944120E-03-.814301470E-06    3
-.947543430E-10 .413487200E-12-.101252100E+04-.329409400E+01                   4
IC8H14(L)               C   8H  14O   0N   0G    300.00   5000.00 1000.00      1
 .299142300E+01 .700064410E-03-.563382800E-07-.923157820E-11 .158275200E-14    2
-.835033800E+03-.135511000E+01 .329812400E+01 .824944120E-03-.814301470E-06    3
-.947543430E-10 .413487200E-12-.101252100E+04-.329409400E+01                   4
IC8H14                  C   8H  14O   0N   0G    300.00   5000.00 1000.00      1
 .299142300E+01 .700064410E-03-.563382800E-07-.923157820E-11 .158275200E-14    2
-.835033800E+03-.135511000E+01 .329812400E+01 .824944120E-03-.814301470E-06    3
-.947543430E-10 .413487200E-12-.101252100E+04-.329409400E+01                   4
IC9H16(L)               C   9H  16O   0N   0G    300.00   5000.00 1000.00      1
 .299142300E+01 .700064410E-03-.563382800E-07-.923157820E-11 .158275200E-14    2
-.835033800E+03-.135511000E+01 .329812400E+01 .824944120E-03-.814301470E-06    3
-.947543430E-10 .413487200E-12-.101252100E+04-.329409400E+01                   4
IC9H16                  C   9H  16O   0N   0G    300.00   5000.00 1000.00      1
 .299142300E+01 .700064410E-03-.563382800E-07-.923157820E-11 .158275200E-14    2
-.835033800E+03-.135511000E+01 .329812400E+01 .824944120E-03-.814301470E-06    3
-.947543430E-10 .413487200E-12-.101252100E+04-.329409400E+01                   4
IC10H18(L)              C  10H  18O   0N   0G    300.00   5000.00 1000.00      1
 .299142300E+01 .700064410E-03-.563382800E-07-.923157820E-11 .158275200E-14    2
-.835033800E+03-.135511000E+01 .329812400E+01 .824944120E-03-.814301470E-06    3
-.947543430E-10 .413487200E-12-.101252100E+04-.329409400E+01                   4
IC10H18                 C  10H  18O   0N   0G    300.00   5000.00 1000.00      1
 .299142300E+01 .700064410E-03-.563382800E-07-.923157820E-11 .158275200E-14    2
-.835033800E+03-.135511000E+01 .329812400E+01 .824944120E-03-.814301470E-06    3
-.947543430E-10 .413487200E-12-.101252100E+04-.329409400E+01                   4
IC17H36(L)              C  17H  36O   0N   0G    300.00   5000.00 1000.00      1
 .299142300E+01 .700064410E-03-.563382800E-07-.923157820E-11 .158275200E-14    2
-.835033800E+03-.135511000E+01 .329812400E+01 .824944120E-03-.814301470E-06    3
-.947543430E-10 .413487200E-12-.101252100E+04-.329409400E+01                   4
IC17H36                 C  17H  36O   0N   0G    300.00   5000.00 1000.00      1
 .299142300E+01 .700064410E-03-.563382800E-07-.923157820E-11 .158275200E-14    2
-.835033800E+03-.135511000E+01 .329812400E+01 .824944120E-03-.814301470E-06    3
-.947543430E-10 .413487200E-12-.101252100E+04-.329409400E+01                   4
IC17H34(L)              C  17H  34O   0N   0G    300.00   5000.00 1000.00      1
 .299142300E+01 .700064410E-03-.563382800E-07-.923157820E-11 .158275200E-14    2
-.835033800E+03-.135511000E+01 .329812400E+01 .824944120E-03-.814301470E-06    3
-.947543430E-10 .413487200E-12-.101252100E+04-.329409400E+01                   4
IC17H34                 C  17H  34O   0N   0G    300.00   5000.00 1000.00      1
 .299142300E+01 .700064410E-03-.563382800E-07-.923157820E-11 .158275200E-14    2
-.835033800E+03-.135511000E+01 .329812400E+01 .824944120E-03-.814301470E-06    3
-.947543430E-10 .413487200E-12-.101252100E+04-.329409400E+01                   4
IC17H32(L)              C  17H  32O   0N   0G    300.00   5000.00 1000.00      1
 .299142300E+01 .700064410E-03-.563382800E-07-.923157820E-11 .158275200E-14    2
-.835033800E+03-.135511000E+01 .329812400E+01 .824944120E-03-.814301470E-06    3
-.947543430E-10 .413487200E-12-.101252100E+04-.329409400E+01                   4
IC17H32                 C  17H  32O   0N   0G    300.00   5000.00 1000.00      1
 .299142300E+01 .700064410E-03-.563382800E-07-.923157820E-11 .158275200E-14    2
-.835033800E+03-.135511000E+01 .329812400E+01 .824944120E-03-.814301470E-06    3
-.947543430E-10 .413487200E-12-.101252100E+04-.329409400E+01                   4
IC18H38(L)              C  18H  38O   0N   0G    300.00   5000.00 1000.00      1
 .299142300E+01 .700064410E-03-.563382800E-07-.923157820E-11 .158275200E-14    2
-.835033800E+03-.135511000E+01 .329812400E+01 .824944120E-03-.814301470E-06    3
-.947543430E-10 .413487200E-12-.101252100E+04-.329409400E+01                   4
IC18H38                 C  18H  38O   0N   0G    300.00   5000.00 1000.00      1
 .299142300E+01 .700064410E-03-.563382800E-07-.923157820E-11 .158275200E-14    2
-.835033800E+03-.135511000E+01 .329812400E+01 .824944120E-03-.814301470E-06    3
-.947543430E-10 .413487200E-12-.101252100E+04-.329409400E+01                   4
IC18H36(L)              C  18H  36O   0N   0G    300.00   5000.00 1000.00      1
 .299142300E+01 .700064410E-03-.563382800E-07-.923157820E-11 .158275200E-14    2
-.835033800E+03-.135511000E+01 .329812400E+01 .824944120E-03-.814301470E-06    3
-.947543430E-10 .413487200E-12-.101252100E+04-.329409400E+01                   4
IC18H36                 C  18H  36O   0N   0G    300.00   5000.00 1000.00      1
 .299142300E+01 .700064410E-03-.563382800E-07-.923157820E-11 .158275200E-14    2
-.835033800E+03-.135511000E+01 .329812400E+01 .824944120E-03-.814301470E-06    3
-.947543430E-10 .413487200E-12-.101252100E+04-.329409400E+01                   4
IC18H34(L)              C  18H  34O   0N   0G    300.00   5000.00 1000.00      1
 .299142300E+01 .700064410E-03-.563382800E-07-.923157820E-11 .158275200E-14    2
-.835033800E+03-.135511000E+01 .329812400E+01 .824944120E-03-.814301470E-06    3
-.947543430E-10 .413487200E-12-.101252100E+04-.329409400E+01                   4
IC18H34                 C  18H  34O   0N   0G    300.00   5000.00 1000.00      1
 .299142300E+01 .700064410E-03-.563382800E-07-.923157820E-11 .158275200E-14    2
-.835033800E+03-.135511000E+01 .329812400E+01 .824944120E-03-.814301470E-06    3
-.947543430E-10 .413487200E-12-.101252100E+04-.329409400E+01                   4
IC19H40(L)              C  19H  40O   0N   0G    300.00   5000.00 1000.00      1
 .299142300E+01 .700064410E-03-.563382800E-07-.923157820E-11 .158275200E-14    2
-.835033800E+03-.135511000E+01 .329812400E+01 .824944120E-03-.814301470E-06    3
-.947543430E-10 .413487200E-12-.101252100E+04-.329409400E+01                   4
IC19H40                 C  19H  40O   0N   0G    300.00   5000.00 1000.00      1
 .299142300E+01 .700064410E-03-.563382800E-07-.923157820E-11 .158275200E-14    2
-.835033800E+03-.135511000E+01 .329812400E+01 .824944120E-03-.814301470E-06    3
-.947543430E-10 .413487200E-12-.101252100E+04-.329409400E+01                   4
IC19H38(L)              C  19H  38O   0N   0G    300.00   5000.00 1000.00      1
 .299142300E+01 .700064410E-03-.563382800E-07-.923157820E-11 .158275200E-14    2
-.835033800E+03-.135511000E+01 .329812400E+01 .824944120E-03-.814301470E-06    3
-.947543430E-10 .413487200E-12-.101252100E+04-.329409400E+01                   4
IC19H38                 C  19H  38O   0N   0G    300.00   5000.00 1000.00      1
 .299142300E+01 .700064410E-03-.563382800E-07-.923157820E-11 .158275200E-14    2
-.835033800E+03-.135511000E+01 .329812400E+01 .824944120E-03-.814301470E-06    3
-.947543430E-10 .413487200E-12-.101252100E+04-.329409400E+01                   4
IC19H36(L)              C  19H  36O   0N   0G    300.00   5000.00 1000.00      1
 .299142300E+01 .700064410E-03-.563382800E-07-.923157820E-11 .158275200E-14    2
-.835033800E+03-.135511000E+01 .329812400E+01 .824944120E-03-.814301470E-06    3
-.947543430E-10 .413487200E-12-.101252100E+04-.329409400E+01                   4
IC19H36                 C  19H  36O   0N   0G    300.00   5000.00 1000.00      1