!#############################################################################!
! Transport file for Polybutadiene pyrolysis
! DO NOT USE FOR PET THERMOCHEMISTRY CALCULATIONS
!  
! version 07-07-2025
!
! for additional informations or citing the mechanism refer to:
! L.T. Creadore, A. Locaspi, T.M. Marchese, M. Pelucchi, T. Faravelli,
! M.J. Castaldi, 
! A semi-detailed kinetic model for polybutadiene pyrolysis, Fuel, 2025
!#############################################################################!

THERMO
   300.0   1000.0   3000.0


N2                G 8/02N   2    0    0    0G   200.000  6000.00  1000.00      1
 2.95257637E+00 1.39690040E-03-4.92631603E-07 7.86010195E-11-4.60755204E-15    2
-9.23948688E+02 5.87188762E+00 3.53100528E+00-1.23660988E-04-5.02999433E-07    3
 2.43530612E-09-1.40881235E-12-1.04697628E+03 2.96747038E+00 0.00000000E+00    4

N2(L)             G 8/02N   2    0    0    0G   200.000  6000.00  1000.00      1
 2.95257637E+00 1.39690040E-03-4.92631603E-07 7.86010195E-11-4.60755204E-15    2
-9.23948688E+02 5.87188762E+00 3.53100528E+00-1.23660988E-04-5.02999433E-07    3
 2.43530612E-09-1.40881235E-12-1.04697628E+03 2.96747038E+00 0.00000000E+00    4

HE                      HE  1               G    200.00   3500.00  850.00      1
 2.50020615e+00-5.42576298e-07 4.63926302e-10-1.57302170e-13 1.82971406e-17    2
-7.45426807e+02 9.27648988e-01 2.49964853e+00 2.08151569e-06-4.16682427e-09    3
 3.47465907e-12-1.04992675e-15-7.45332012e+02 9.30248556e-01                   4

P-PB-P(L)               C  16H  24          G    300.00   5000.00 1000.00      1
 .299142300E+01 .700064410E-03-.563382800E-07-.923157820E-11 .158275200E-14    2
-.835033800E+03-.135511000E+01 .329812400E+01 .824944120E-03-.814301470E-06    3
-.947543430E-10 .413487200E-12-.101252100E+04-.329409400E+01                   4
P-PB-P                  C  16H  24          G    300.00   5000.00 1000.00      1
 .299142300E+01 .700064410E-03-.563382800E-07-.923157820E-11 .158275200E-14    2
-.835033800E+03-.135511000E+01 .329812400E+01 .824944120E-03-.814301470E-06    3
-.947543430E-10 .413487200E-12-.101252100E+04-.329409400E+01                   4
P-PBv-P(L)              C  16H  24          G    300.00   5000.00 1000.00      1
 .299142300E+01 .700064410E-03-.563382800E-07-.923157820E-11 .158275200E-14    2
-.835033800E+03-.135511000E+01 .329812400E+01 .824944120E-03-.814301470E-06    3
-.947543430E-10 .413487200E-12-.101252100E+04-.329409400E+01                   4
P-PBv-P                 C  16H  24          G    300.00   5000.00 1000.00      1
 .299142300E+01 .700064410E-03-.563382800E-07-.923157820E-11 .158275200E-14    2
-.835033800E+03-.135511000E+01 .329812400E+01 .824944120E-03-.814301470E-06    3
-.947543430E-10 .413487200E-12-.101252100E+04-.329409400E+01                   4
P-PBisov-P(L)           C  16H  24          G    300.00   5000.00 1000.00      1
 .299142300E+01 .700064410E-03-.563382800E-07-.923157820E-11 .158275200E-14    2
-.835033800E+03-.135511000E+01 .329812400E+01 .824944120E-03-.814301470E-06    3
-.947543430E-10 .413487200E-12-.101252100E+04-.329409400E+01                   4
P-PBisov-P              C  16H  24          G    300.00   5000.00 1000.00      1
 .299142300E+01 .700064410E-03-.563382800E-07-.923157820E-11 .158275200E-14    2
-.835033800E+03-.135511000E+01 .329812400E+01 .824944120E-03-.814301470E-06    3
-.947543430E-10 .413487200E-12-.101252100E+04-.329409400E+01                   4
P-PBx-P(L)              C  16H  24          G    300.00   5000.00 1000.00      1
 .299142300E+01 .700064410E-03-.563382800E-07-.923157820E-11 .158275200E-14    2
-.835033800E+03-.135511000E+01 .329812400E+01 .824944120E-03-.814301470E-06    3
-.947543430E-10 .413487200E-12-.101252100E+04-.329409400E+01                   4
P-PBx-P                 C  16H  24          G    300.00   5000.00 1000.00      1
 .299142300E+01 .700064410E-03-.563382800E-07-.923157820E-11 .158275200E-14    2
-.835033800E+03-.135511000E+01 .329812400E+01 .824944120E-03-.814301470E-06    3
-.947543430E-10 .413487200E-12-.101252100E+04-.329409400E+01                   4
P-PBvx-P(L)             C  16H  24          G    300.00   5000.00 1000.00      1
 .299142300E+01 .700064410E-03-.563382800E-07-.923157820E-11 .158275200E-14    2
-.835033800E+03-.135511000E+01 .329812400E+01 .824944120E-03-.814301470E-06    3
-.947543430E-10 .413487200E-12-.101252100E+04-.329409400E+01                   4
P-PBvx-P                C  16H  24          G    300.00   5000.00 1000.00      1
 .299142300E+01 .700064410E-03-.563382800E-07-.923157820E-11 .158275200E-14    2
-.835033800E+03-.135511000E+01 .329812400E+01 .824944120E-03-.814301470E-06    3
-.947543430E-10 .413487200E-12-.101252100E+04-.329409400E+01                   4
P-PB_i-P(L)             C  16H  23          G    300.00   5000.00 1000.00      1
 .299142300E+01 .700064410E-03-.563382800E-07-.923157820E-11 .158275200E-14    2
-.835033800E+03-.135511000E+01 .329812400E+01 .824944120E-03-.814301470E-06    3
-.947543430E-10 .413487200E-12-.101252100E+04-.329409400E+01                   4
P-PB_i-P                C  16H  23          G    300.00   5000.00 1000.00      1
 .299142300E+01 .700064410E-03-.563382800E-07-.923157820E-11 .158275200E-14    2
-.835033800E+03-.135511000E+01 .329812400E+01 .824944120E-03-.814301470E-06    3
-.947543430E-10 .413487200E-12-.101252100E+04-.329409400E+01                   4
P-PBv_i-P(L)            C  16H  23          G    300.00   5000.00 1000.00      1
 .299142300E+01 .700064410E-03-.563382800E-07-.923157820E-11 .158275200E-14    2
-.835033800E+03-.135511000E+01 .329812400E+01 .824944120E-03-.814301470E-06    3
-.947543430E-10 .413487200E-12-.101252100E+04-.329409400E+01                   4
P-PBv_i-P               C  16H  23          G    300.00   5000.00 1000.00      1
 .299142300E+01 .700064410E-03-.563382800E-07-.923157820E-11 .158275200E-14    2
-.835033800E+03-.135511000E+01 .329812400E+01 .824944120E-03-.814301470E-06    3
-.947543430E-10 .413487200E-12-.101252100E+04-.329409400E+01                   4
P-PBx_i-P(L)            C  16H  23          G    300.00   5000.00 1000.00      1
 .299142300E+01 .700064410E-03-.563382800E-07-.923157820E-11 .158275200E-14    2
-.835033800E+03-.135511000E+01 .329812400E+01 .824944120E-03-.814301470E-06    3
-.947543430E-10 .413487200E-12-.101252100E+04-.329409400E+01                   4
P-PBx_i-P               C  16H  23          G    300.00   5000.00 1000.00      1
 .299142300E+01 .700064410E-03-.563382800E-07-.923157820E-11 .158275200E-14    2
-.835033800E+03-.135511000E+01 .329812400E+01 .824944120E-03-.814301470E-06    3
-.947543430E-10 .413487200E-12-.101252100E+04-.329409400E+01                   4
P-PBvx_i-P(L)           C  16H  23          G    300.00   5000.00 1000.00      1
 .299142300E+01 .700064410E-03-.563382800E-07-.923157820E-11 .158275200E-14    2
-.835033800E+03-.135511000E+01 .329812400E+01 .824944120E-03-.814301470E-06    3
-.947543430E-10 .413487200E-12-.101252100E+04-.329409400E+01                   4
P-PBvx_i-P              C  16H  23          G    300.00   5000.00 1000.00      1
 .299142300E+01 .700064410E-03-.563382800E-07-.923157820E-11 .158275200E-14    2
-.835033800E+03-.135511000E+01 .329812400E+01 .824944120E-03-.814301470E-06    3
-.947543430E-10 .413487200E-12-.101252100E+04-.329409400E+01                   4
P-C8H11(L)              C   8H  11          G    300.00   5000.00 1000.00      1
 .299142300E+01 .700064410E-03-.563382800E-07-.923157820E-11 .158275200E-14    2
-.835033800E+03-.135511000E+01 .329812400E+01 .824944120E-03-.814301470E-06    3
-.947543430E-10 .413487200E-12-.101252100E+04-.329409400E+01                   4
P-C8H11                 C   8H  11          G    300.00   5000.00 1000.00      1
 .299142300E+01 .700064410E-03-.563382800E-07-.923157820E-11 .158275200E-14    2
-.835033800E+03-.135511000E+01 .329812400E+01 .824944120E-03-.814301470E-06    3
-.947543430E-10 .413487200E-12-.101252100E+04-.329409400E+01                   4
P-C8H11v(L)             C   8H  11          G    300.00   5000.00 1000.00      1
 .299142300E+01 .700064410E-03-.563382800E-07-.923157820E-11 .158275200E-14    2
-.835033800E+03-.135511000E+01 .329812400E+01 .824944120E-03-.814301470E-06    3
-.947543430E-10 .413487200E-12-.101252100E+04-.329409400E+01                   4
P-C8H11v                C   8H  11          G    300.00   5000.00 1000.00      1
 .299142300E+01 .700064410E-03-.563382800E-07-.923157820E-11 .158275200E-14    2
-.835033800E+03-.135511000E+01 .329812400E+01 .824944120E-03-.814301470E-06    3
-.947543430E-10 .413487200E-12-.101252100E+04-.329409400E+01                   4
P-C8H13(L)              C   8H  13          G    300.00   5000.00 1000.00      1
 .299142300E+01 .700064410E-03-.563382800E-07-.923157820E-11 .158275200E-14    2
-.835033800E+03-.135511000E+01 .329812400E+01 .824944120E-03-.814301470E-06    3
-.947543430E-10 .413487200E-12-.101252100E+04-.329409400E+01                   4
P-C8H13                 C   8H  13          G    300.00   5000.00 1000.00      1
 .299142300E+01 .700064410E-03-.563382800E-07-.923157820E-11 .158275200E-14    2
-.835033800E+03-.135511000E+01 .329812400E+01 .824944120E-03-.814301470E-06    3
-.947543430E-10 .413487200E-12-.101252100E+04-.329409400E+01                   4
P-C8H13v(L)             C   8H  13          G    300.00   5000.00 1000.00      1
 .299142300E+01 .700064410E-03-.563382800E-07-.923157820E-11 .158275200E-14    2
-.835033800E+03-.135511000E+01 .329812400E+01 .824944120E-03-.814301470E-06    3
-.947543430E-10 .413487200E-12-.101252100E+04-.329409400E+01                   4
P-C8H13v                C   8H  13          G    300.00   5000.00 1000.00      1
 .299142300E+01 .700064410E-03-.563382800E-07-.923157820E-11 .158275200E-14    2
-.835033800E+03-.135511000E+01 .329812400E+01 .824944120E-03-.814301470E-06    3
-.947543430E-10 .413487200E-12-.101252100E+04-.329409400E+01                   4
P-C8H12_t(L)            C   8H  12          G    300.00   5000.00 1000.00      1
 .299142300E+01 .700064410E-03-.563382800E-07-.923157820E-11 .158275200E-14    2
-.835033800E+03-.135511000E+01 .329812400E+01 .824944120E-03-.814301470E-06    3
-.947543430E-10 .413487200E-12-.101252100E+04-.329409400E+01                   4
P-C8H12_t               C   8H  12          G    300.00   5000.00 1000.00      1
 .299142300E+01 .700064410E-03-.563382800E-07-.923157820E-11 .158275200E-14    2
-.835033800E+03-.135511000E+01 .329812400E+01 .824944120E-03-.814301470E-06    3
-.947543430E-10 .413487200E-12-.101252100E+04-.329409400E+01                   4
P-C8H12v_t(L)           C   8H  12          G    300.00   5000.00 1000.00      1
 .299142300E+01 .700064410E-03-.563382800E-07-.923157820E-11 .158275200E-14    2
-.835033800E+03-.135511000E+01 .329812400E+01 .824944120E-03-.814301470E-06    3
-.947543430E-10 .413487200E-12-.101252100E+04-.329409400E+01                   4
P-C8H12v_t              C   8H  12          G    300.00   5000.00 1000.00      1
 .299142300E+01 .700064410E-03-.563382800E-07-.923157820E-11 .158275200E-14    2
-.835033800E+03-.135511000E+01 .329812400E+01 .824944120E-03-.814301470E-06    3
-.947543430E-10 .413487200E-12-.101252100E+04-.329409400E+01                   4
P-C8H10_i(L)            C   8H  10          G    300.00   5000.00 1000.00      1
 .299142300E+01 .700064410E-03-.563382800E-07-.923157820E-11 .158275200E-14    2
-.835033800E+03-.135511000E+01 .329812400E+01 .824944120E-03-.814301470E-06    3
-.947543430E-10 .413487200E-12-.101252100E+04-.329409400E+01                   4
P-C8H10_i               C   8H  10          G    300.00   5000.00 1000.00      1
 .299142300E+01 .700064410E-03-.563382800E-07-.923157820E-11 .158275200E-14    2
-.835033800E+03-.135511000E+01 .329812400E+01 .824944120E-03-.814301470E-06    3
-.947543430E-10 .413487200E-12-.101252100E+04-.329409400E+01                   4
P-C8H12_i(L)            C   8H  12          G    300.00   5000.00 1000.00      1
 .299142300E+01 .700064410E-03-.563382800E-07-.923157820E-11 .158275200E-14    2
-.835033800E+03-.135511000E+01 .329812400E+01 .824944120E-03-.814301470E-06    3
-.947543430E-10 .413487200E-12-.101252100E+04-.329409400E+01                   4
P-C8H12_i               C   8H  12          G    300.00   5000.00 1000.00      1
 .299142300E+01 .700064410E-03-.563382800E-07-.923157820E-11 .158275200E-14    2
-.835033800E+03-.135511000E+01 .329812400E+01 .824944120E-03-.814301470E-06    3
-.947543430E-10 .413487200E-12-.101252100E+04-.329409400E+01                   4
P-C8H12v_i(L)           C   8H  12          G    300.00   5000.00 1000.00      1
 .299142300E+01 .700064410E-03-.563382800E-07-.923157820E-11 .158275200E-14    2
-.835033800E+03-.135511000E+01 .329812400E+01 .824944120E-03-.814301470E-06    3
-.947543430E-10 .413487200E-12-.101252100E+04-.329409400E+01                   4
P-C8H12v_i              C   8H  12          G    300.00   5000.00 1000.00      1
 .299142300E+01 .700064410E-03-.563382800E-07-.923157820E-11 .158275200E-14    2
-.835033800E+03-.135511000E+01 .329812400E+01 .824944120E-03-.814301470E-06    3
-.947543430E-10 .413487200E-12-.101252100E+04-.329409400E+01                   4
C4H6(L)                 C   4H   6          G    300.00   5000.00 1000.00      1
 .299142300E+01 .700064410E-03-.563382800E-07-.923157820E-11 .158275200E-14    2
-.835033800E+03-.135511000E+01 .329812400E+01 .824944120E-03-.814301470E-06    3
-.947543430E-10 .413487200E-12-.101252100E+04-.329409400E+01                   4
C4H6                    C   4H   6          G    300.00   5000.00 1000.00      1
 .299142300E+01 .700064410E-03-.563382800E-07-.923157820E-11 .158275200E-14    2
-.835033800E+03-.135511000E+01 .329812400E+01 .824944120E-03-.814301470E-06    3
-.947543430E-10 .413487200E-12-.101252100E+04-.329409400E+01                   4
C5H6(L)                 C   5H   6          G    300.00   5000.00 1000.00      1
 .299142300E+01 .700064410E-03-.563382800E-07-.923157820E-11 .158275200E-14    2
-.835033800E+03-.135511000E+01 .329812400E+01 .824944120E-03-.814301470E-06    3
-.947543430E-10 .413487200E-12-.101252100E+04-.329409400E+01                   4
C5H6                    C   5H   6          G    300.00   5000.00 1000.00      1
 .299142300E+01 .700064410E-03-.563382800E-07-.923157820E-11 .158275200E-14    2
-.835033800E+03-.135511000E+01 .329812400E+01 .824944120E-03-.814301470E-06    3
-.947543430E-10 .413487200E-12-.101252100E+04-.329409400E+01                   4
C8H10(L)                C   8H  10          G    300.00   5000.00 1000.00      1
 .299142300E+01 .700064410E-03-.563382800E-07-.923157820E-11 .158275200E-14    2
-.835033800E+03-.135511000E+01 .329812400E+01 .824944120E-03-.814301470E-06    3
-.947543430E-10 .413487200E-12-.101252100E+04-.329409400E+01                   4
C8H10                   C   8H  10          G    300.00   5000.00 1000.00      1
 .299142300E+01 .700064410E-03-.563382800E-07-.923157820E-11 .158275200E-14    2
-.835033800E+03-.135511000E+01 .329812400E+01 .824944120E-03-.814301470E-06    3
-.947543430E-10 .413487200E-12-.101252100E+04-.329409400E+01                   4
TRIMER(L)               C  12H  18          G    300.00   5000.00 1000.00      1
 .299142300E+01 .700064410E-03-.563382800E-07-.923157820E-11 .158275200E-14    2
-.835033800E+03-.135511000E+01 .329812400E+01 .824944120E-03-.814301470E-06    3
-.947543430E-10 .413487200E-12-.101252100E+04-.329409400E+01                   4
TRIMER                  C  12H  18          G    300.00   5000.00 1000.00      1
 .299142300E+01 .700064410E-03-.563382800E-07-.923157820E-11 .158275200E-14    2
-.835033800E+03-.135511000E+01 .329812400E+01 .824944120E-03-.814301470E-06    3
-.947543430E-10 .413487200E-12-.101252100E+04-.329409400E+01                   4
C16H24(L)               C  16H  24          G    300.00   5000.00 1000.00      1
 .299142300E+01 .700064410E-03-.563382800E-07-.923157820E-11 .158275200E-14    2
-.835033800E+03-.135511000E+01 .329812400E+01 .824944120E-03-.814301470E-06    3
-.947543430E-10 .413487200E-12-.101252100E+04-.329409400E+01                   4
C16H24                  C  16H  24          G    300.00   5000.00 1000.00      1
 .299142300E+01 .700064410E-03-.563382800E-07-.923157820E-11 .158275200E-14    2
-.835033800E+03-.135511000E+01 .329812400E+01 .824944120E-03-.814301470E-06    3
-.947543430E-10 .413487200E-12-.101252100E+04-.329409400E+01                   4
C2H2(L)                 C   2H   2          G    300.00   5000.00 1000.00      1
 .299142300E+01 .700064410E-03-.563382800E-07-.923157820E-11 .158275200E-14    2
-.835033800E+03-.135511000E+01 .329812400E+01 .824944120E-03-.814301470E-06    3
-.947543430E-10 .413487200E-12-.101252100E+04-.329409400E+01                   4
C2H2                    C   2H   2          G    300.00   5000.00 1000.00      1
 .299142300E+01 .700064410E-03-.563382800E-07-.923157820E-11 .158275200E-14    2
-.835033800E+03-.135511000E+01 .329812400E+01 .824944120E-03-.814301470E-06    3
-.947543430E-10 .413487200E-12-.101252100E+04-.329409400E+01                   4
C7H10(L)                C   7H  10          G    300.00   5000.00 1000.00      1
 .299142300E+01 .700064410E-03-.563382800E-07-.923157820E-11 .158275200E-14    2
-.835033800E+03-.135511000E+01 .329812400E+01 .824944120E-03-.814301470E-06    3
-.947543430E-10 .413487200E-12-.101252100E+04-.329409400E+01                   4
C7H10                   C   7H  10          G    300.00   5000.00 1000.00      1
 .299142300E+01 .700064410E-03-.563382800E-07-.923157820E-11 .158275200E-14    2
-.835033800E+03-.135511000E+01 .329812400E+01 .824944120E-03-.814301470E-06    3
-.947543430E-10 .413487200E-12-.101252100E+04-.329409400E+01                   4
C8H14(L)                C   8H  14          G    300.00   5000.00 1000.00      1
 .299142300E+01 .700064410E-03-.563382800E-07-.923157820E-11 .158275200E-14    2
-.835033800E+03-.135511000E+01 .329812400E+01 .824944120E-03-.814301470E-06    3
-.947543430E-10 .413487200E-12-.101252100E+04-.329409400E+01                   4
C8H14                   C   8H  14          G    300.00   5000.00 1000.00      1
 .299142300E+01 .700064410E-03-.563382800E-07-.923157820E-11 .158275200E-14    2
-.835033800E+03-.135511000E+01 .329812400E+01 .824944120E-03-.814301470E-06    3
-.947543430E-10 .413487200E-12-.101252100E+04-.329409400E+01                   4
DIMER(L)                C   8H  12          G    300.00   5000.00 1000.00      1
 .299142300E+01 .700064410E-03-.563382800E-07-.923157820E-11 .158275200E-14    2
-.835033800E+03-.135511000E+01 .329812400E+01 .824944120E-03-.814301470E-06    3
-.947543430E-10 .413487200E-12-.101252100E+04-.329409400E+01                   4
DIMER                   C   8H  12          G    300.00   5000.00 1000.00      1
 .299142300E+01 .700064410E-03-.563382800E-07-.923157820E-11 .158275200E-14    2
-.835033800E+03-.135511000E+01 .329812400E+01 .824944120E-03-.814301470E-06    3
-.947543430E-10 .413487200E-12-.101252100E+04-.329409400E+01                   4
VCH(L)                  C   8H  12          G    300.00   5000.00 1000.00      1
 .299142300E+01 .700064410E-03-.563382800E-07-.923157820E-11 .158275200E-14    2
-.835033800E+03-.135511000E+01 .329812400E+01 .824944120E-03-.814301470E-06    3
-.947543430E-10 .413487200E-12-.101252100E+04-.329409400E+01                   4
VCH                     C   8H  12          G    300.00   5000.00 1000.00      1
 .299142300E+01 .700064410E-03-.563382800E-07-.923157820E-11 .158275200E-14    2
-.835033800E+03-.135511000E+01 .329812400E+01 .824944120E-03-.814301470E-06    3
-.947543430E-10 .413487200E-12-.101252100E+04-.329409400E+01                   4
C28H42(L)               C  28H  42          G    300.00   5000.00 1000.00      1
 .299142300E+01 .700064410E-03-.563382800E-07-.923157820E-11 .158275200E-14    2
-.835033800E+03-.135511000E+01 .329812400E+01 .824944120E-03-.814301470E-06    3
-.947543430E-10 .413487200E-12-.101252100E+04-.329409400E+01                   4
C28H42                  C  28H  42          G    300.00   5000.00 1000.00      1
 .299142300E+01 .700064410E-03-.563382800E-07-.923157820E-11 .158275200E-14    2
-.835033800E+03-.135511000E+01 .329812400E+01 .824944120E-03-.814301470E-06    3
-.947543430E-10 .413487200E-12-.101252100E+04-.329409400E+01                   4
C3H6(L)                 C   3H   6          G    300.00   5000.00 1000.00      1
 .299142300E+01 .700064410E-03-.563382800E-07-.923157820E-11 .158275200E-14    2
-.835033800E+03-.135511000E+01 .329812400E+01 .824944120E-03-.814301470E-06    3
-.947543430E-10 .413487200E-12-.101252100E+04-.329409400E+01                   4
C3H6                    C   3H   6          G    300.00   5000.00 1000.00      1
 .299142300E+01 .700064410E-03-.563382800E-07-.923157820E-11 .158275200E-14    2
-.835033800E+03-.135511000E+01 .329812400E+01 .824944120E-03-.814301470E-06    3
-.947543430E-10 .413487200E-12-.101252100E+04-.329409400E+01                   4
H2(L)                   H   2               G    300.00   5000.00 1000.00      1
 .299142300E+01 .700064410E-03-.563382800E-07-.923157820E-11 .158275200E-14    2
-.835033800E+03-.135511000E+01 .329812400E+01 .824944120E-03-.814301470E-06    3
-.947543430E-10 .413487200E-12-.101252100E+04-.329409400E+01                   4
H2                      H   2               G    300.00   5000.00 1000.00      1
 .299142300E+01 .700064410E-03-.563382800E-07-.923157820E-11 .158275200E-14    2
-.835033800E+03-.135511000E+01 .329812400E+01 .824944120E-03-.814301470E-06    3
-.947543430E-10 .413487200E-12-.101252100E+04-.329409400E+01                   4
C8H11(L)                C   8H  11          G    300.00   5000.00 1000.00      1
 .299142300E+01 .700064410E-03-.563382800E-07-.923157820E-11 .158275200E-14    2
-.835033800E+03-.135511000E+01 .329812400E+01 .824944120E-03-.814301470E-06    3
-.947543430E-10 .413487200E-12-.101252100E+04-.329409400E+01                   4
C8H11                   C   8H  11          G    300.00   5000.00 1000.00      1
 .299142300E+01 .700064410E-03-.563382800E-07-.923157820E-11 .158275200E-14    2
-.835033800E+03-.135511000E+01 .329812400E+01 .824944120E-03-.814301470E-06    3
-.947543430E-10 .413487200E-12-.101252100E+04-.329409400E+01                   4
C8H13(L)                C   8H  13          G    300.00   5000.00 1000.00      1
 .299142300E+01 .700064410E-03-.563382800E-07-.923157820E-11 .158275200E-14    2
-.835033800E+03-.135511000E+01 .329812400E+01 .824944120E-03-.814301470E-06    3
-.947543430E-10 .413487200E-12-.101252100E+04-.329409400E+01                   4
C8H13                   C   8H  13          G    300.00   5000.00 1000.00      1
 .299142300E+01 .700064410E-03-.563382800E-07-.923157820E-11 .158275200E-14    2
-.835033800E+03-.135511000E+01 .329812400E+01 .824944120E-03-.814301470E-06    3
-.947543430E-10 .413487200E-12-.101252100E+04-.329409400E+01                   4
C3H5(L)                 C   3H   5          G    300.00   5000.00 1000.00      1
 .299142300E+01 .700064410E-03-.563382800E-07-.923157820E-11 .158275200E-14    2
-.835033800E+03-.135511000E+01 .329812400E+01 .824944120E-03-.814301470E-06    3
-.947543430E-10 .413487200E-12-.101252100E+04-.329409400E+01                   4
C3H5                    C   3H   5          G    300.00   5000.00 1000.00      1
 .299142300E+01 .700064410E-03-.563382800E-07-.923157820E-11 .158275200E-14    2
-.835033800E+03-.135511000E+01 .329812400E+01 .824944120E-03-.814301470E-06    3
-.947543430E-10 .413487200E-12-.101252100E+04-.329409400E+01                   4
C7H11(L)                C   7H  11          G    300.00   5000.00 1000.00      1
 .299142300E+01 .700064410E-03-.563382800E-07-.923157820E-11 .158275200E-14    2
-.835033800E+03-.135511000E+01 .329812400E+01 .824944120E-03-.814301470E-06    3
-.947543430E-10 .413487200E-12-.101252100E+04-.329409400E+01                   4
C7H11                   C   7H  11          G    300.00   5000.00 1000.00      1
 .299142300E+01 .700064410E-03-.563382800E-07-.923157820E-11 .158275200E-14    2
-.835033800E+03-.135511000E+01 .329812400E+01 .824944120E-03-.814301470E-06    3
-.947543430E-10 .413487200E-12-.101252100E+04-.329409400E+01                   4
VCH_i(L)                C   8H  11          G    300.00   5000.00 1000.00      1
 .299142300E+01 .700064410E-03-.563382800E-07-.923157820E-11 .158275200E-14    2
-.835033800E+03-.135511000E+01 .329812400E+01 .824944120E-03-.814301470E-06    3
-.947543430E-10 .413487200E-12-.101252100E+04-.329409400E+01                   4
VCH_i                   C   8H  11          G    300.00   5000.00 1000.00      1
 .299142300E+01 .700064410E-03-.563382800E-07-.923157820E-11 .158275200E-14    2
-.835033800E+03-.135511000E+01 .329812400E+01 .824944120E-03-.814301470E-06    3
-.947543430E-10 .413487200E-12-.101252100E+04-.329409400E+01                   4
C28H41_i(L)             C  28H  41          G    300.00   5000.00 1000.00      1
 .299142300E+01 .700064410E-03-.563382800E-07-.923157820E-11 .158275200E-14    2
-.835033800E+03-.135511000E+01 .329812400E+01 .824944120E-03-.814301470E-06    3
-.947543430E-10 .413487200E-12-.101252100E+04-.329409400E+01                   4
C28H41_i                C  28H  41          G    300.00   5000.00 1000.00      1
 .299142300E+01 .700064410E-03-.563382800E-07-.923157820E-11 .158275200E-14    2
-.835033800E+03-.135511000E+01 .329812400E+01 .824944120E-03-.814301470E-06    3
-.947543430E-10 .413487200E-12-.101252100E+04-.329409400E+01                   4
C16H23_i(L)             C  16H  23          G    300.00   5000.00 1000.00      1
 .299142300E+01 .700064410E-03-.563382800E-07-.923157820E-11 .158275200E-14    2
-.835033800E+03-.135511000E+01 .329812400E+01 .824944120E-03-.814301470E-06    3
-.947543430E-10 .413487200E-12-.101252100E+04-.329409400E+01                   4
C16H23_i                C  16H  23          G    300.00   5000.00 1000.00      1
 .299142300E+01 .700064410E-03-.563382800E-07-.923157820E-11 .158275200E-14    2
-.835033800E+03-.135511000E+01 .329812400E+01 .824944120E-03-.814301470E-06    3
-.947543430E-10 .413487200E-12-.101252100E+04-.329409400E+01                   4
END