THERMO
   300.0   1000.0   3000.0


N2                G 8/02N   2    0    0    0G   200.000  6000.00  1000.00      1
 2.95257637E+00 1.39690040E-03-4.92631603E-07 7.86010195E-11-4.60755204E-15    2
-9.23948688E+02 5.87188762E+00 3.53100528E+00-1.23660988E-04-5.02999433E-07    3
 2.43530612E-09-1.40881235E-12-1.04697628E+03 2.96747038E+00 0.00000000E+00    4

N2(L)             G 8/02N   2    0    0    0G   200.000  6000.00  1000.00      1
 2.95257637E+00 1.39690040E-03-4.92631603E-07 7.86010195E-11-4.60755204E-15    2
-9.23948688E+02 5.87188762E+00 3.53100528E+00-1.23660988E-04-5.02999433E-07    3
 2.43530612E-09-1.40881235E-12-1.04697628E+03 2.96747038E+00 0.00000000E+00    4

HE                      HE  1               G    200.00   3500.00  850.00      1
 2.50020615e+00-5.42576298e-07 4.63926302e-10-1.57302170e-13 1.82971406e-17    2
-7.45426807e+02 9.27648988e-01 2.49964853e+00 2.08151569e-06-4.16682427e-09    3
 3.47465907e-12-1.04992675e-15-7.45332012e+02 9.30248556e-01                   4

P-C16H16-P(L)           C  16H  16O   0N   0G    200.00   2666.67 2000.00      1
-1.33417814E+01 1.82046880E-01-1.46826893E-04 5.69886882E-08-8.19512927E-12    2
 1.37435132E+04 7.62135803E+01-1.33417814E+01 1.82046880E-01-1.46826893E-04    3
 5.69886882E-08-8.19512927E-12 1.37435132E+04 7.62135803E+01                   4 
P-C16H16-P              C  16H  16O   0N   0G    200.00   2666.67 2000.00      1
-1.33417814E+01 1.82046880E-01-1.46826893E-04 5.69886882E-08-8.19512927E-12    2
 1.37435132E+04 7.62135803E+01-1.33417814E+01 1.82046880E-01-1.46826893E-04    3
 5.69886882E-08-8.19512927E-12 1.37435132E+04 7.62135803E+01                   4 
P-C16H15-P(L)           C  16H  15O   0N   0G    200.00   2666.67 2000.00      1
-1.12887833E+01 1.71947864E-01-1.35589573E-04 5.11290374E-08-7.06996057E-12    2
 2.68137608E+04 6.55113059E+01-1.12887833E+01 1.71947864E-01-1.35589573E-04    3
 5.11290374E-08-7.06996057E-12 2.68137608E+04 6.55113059E+01                   4 
P-C16H15-P              C  16H  15O   0N   0G    200.00   2666.67 2000.00      1
-1.12887833E+01 1.71947864E-01-1.35589573E-04 5.11290374E-08-7.06996057E-12    2
 2.68137608E+04 6.55113059E+01-1.12887833E+01 1.71947864E-01-1.35589573E-04    3
 5.11290374E-08-7.06996057E-12 2.68137608E+04 6.55113059E+01                   4 
P-C16H17(L)             C  16H  17O   0N   0G    200.00   2666.67 2000.00      1
-1.23320995E+01 1.78524324E-01-1.39743376E-04 5.27254324E-08-7.35054583E-12    2
 1.15979217E+04 8.06157891E+01-1.23320995E+01 1.78524324E-01-1.39743376E-04    3
 5.27254324E-08-7.35054583E-12 1.15979217E+04 8.06157891E+01                   4 
P-C16H17                C  16H  17O   0N   0G    200.00   2666.67 2000.00      1
-1.23320995E+01 1.78524324E-01-1.39743376E-04 5.27254324E-08-7.35054583E-12    2
 1.15979217E+04 8.06157891E+01-1.23320995E+01 1.78524324E-01-1.39743376E-04    3
 5.27254324E-08-7.35054583E-12 1.15979217E+04 8.06157891E+01                   4 
P-C16H15(L)             C  16H  15O   0N   0G    200.00   2666.67 2000.00      1
-1.17817397E+01 1.82988368E-01-1.44200374E-04 5.51870550E-08-7.85527135E-12    2
 2.12640055E+04 7.92347646E+01-1.17817397E+01 1.82988368E-01-1.44200374E-04    3
 5.51870550E-08-7.85527135E-12 2.12640055E+04 7.92347646E+01                   4 
P-C16H15                C  16H  15O   0N   0G    200.00   2666.67 2000.00      1
-1.17817397E+01 1.82988368E-01-1.44200374E-04 5.51870550E-08-7.85527135E-12    2
 2.12640055E+04 7.92347646E+01-1.17817397E+01 1.82988368E-01-1.44200374E-04    3
 5.51870550E-08-7.85527135E-12 2.12640055E+04 7.92347646E+01                   4 
P-C16H16(L)             C  16H  16O   0N   0G    200.00   2666.67 2000.00      1
-1.02791014E+01 1.68425308E-01-1.28506055E-04 4.68657816E-08-6.22537712E-12    2
 2.46681694E+04 6.99135147E+01-1.02791014E+01 1.68425308E-01-1.28506055E-04    3
 4.68657816E-08-6.22537712E-12 2.46681694E+04 6.99135147E+01                   4 
P-C16H16                C  16H  16O   0N   0G    200.00   2666.67 2000.00      1
-1.02791014E+01 1.68425308E-01-1.28506055E-04 4.68657816E-08-6.22537712E-12    2
 2.46681694E+04 6.99135147E+01-1.02791014E+01 1.68425308E-01-1.28506055E-04    3
 4.68657816E-08-6.22537712E-12 2.46681694E+04 6.99135147E+01                   4 
P-C16H16_T(L)           C  16H  16O   0N   0G    200.00   2666.67 2000.00      1
-1.23359709E+01 1.78339071E-01-1.42515379E-04 5.47387570E-08-7.76683183E-12    2
 2.65034722E+04 7.94039453E+01-1.23359709E+01 1.78339071E-01-1.42515379E-04    3
 5.47387570E-08-7.76683183E-12 2.65034722E+04 7.94039453E+01                   4 
P-C16H16_T              C  16H  16O   0N   0G    200.00   2666.67 2000.00      1
-1.23359709E+01 1.78339071E-01-1.42515379E-04 5.47387570E-08-7.76683183E-12    2
 2.65034722E+04 7.94039453E+01-1.23359709E+01 1.78339071E-01-1.42515379E-04    3
 5.47387570E-08-7.76683183E-12 2.65034722E+04 7.94039453E+01                   4 
P-C16H14(L)             C  16H  14O   0N   0G    200.00   2666.67 2000.00      1
-9.72874161E+00 1.72889353E-01-1.32963054E-04 4.93274042E-08-6.73010264E-12    2
 3.43342531E+04 6.85324902E+01-9.72874161E+00 1.72889353E-01-1.32963054E-04    3
 4.93274042E-08-6.73010264E-12 3.43342531E+04 6.85324902E+01                   4 
P-C16H14                C  16H  14O   0N   0G    200.00   2666.67 2000.00      1
-9.72874161E+00 1.72889353E-01-1.32963054E-04 4.93274042E-08-6.73010264E-12    2
 3.43342531E+04 6.85324902E+01-9.72874161E+00 1.72889353E-01-1.32963054E-04    3
 4.93274042E-08-6.73010264E-12 3.43342531E+04 6.85324902E+01                   4 
P-C16H14_A(L)           C  16H  14O   0N   0G    200.00   2666.67 2000.00      1
-1.35423204E+01 1.87223032E-01-1.50816800E-04 5.86143267E-08-8.45485045E-12    2
 3.85018774E+04 8.60384586E+01-1.35423204E+01 1.87223032E-01-1.50816800E-04    3
 5.86143267E-08-8.45485045E-12 3.85018774E+04 8.60384586E+01                   4 
P-C16H14_A              C  16H  14O   0N   0G    200.00   2666.67 2000.00      1
-1.35423204E+01 1.87223032E-01-1.50816800E-04 5.86143267E-08-8.45485045E-12    2
 3.85018774E+04 8.60384586E+01-1.35423204E+01 1.87223032E-01-1.50816800E-04    3
 5.86143267E-08-8.45485045E-12 3.85018774E+04 8.60384586E+01                   4 
C8H10(L)                C   8H  10O   0N   0G    200.00   2666.67  652.97      1
-3.79763240E+00 7.84937028E-02-4.89453281E-05 1.42521098E-08-1.37165301E-12    2
-6.68031742E+02 5.33978739E+01 2.06301951E+01-2.45468035E-01 1.81104952E-03    3
-4.27052355E-06 3.52110696E-09-9.06182767E+03-5.21219587E+01                   4 
C8H10                   C   8H  10O   0N   0G    200.00   2666.67  652.97      1
-3.79763240E+00 7.84937028E-02-4.89453281E-05 1.42521098E-08-1.37165301E-12    2
-6.68031742E+02 5.33978739E+01-3.79763240E+00 7.84937028E-02-4.89453281E-05    3
 1.42521098E-08-1.37165301E-12-6.68031742E+02 5.33978739E+01                   4 
C8H8(L)                 C   8H   8O   0N   0G    200.00   2666.67  711.45      1
-5.01692056E+00 8.09394806E-02-6.17266341E-05 2.31780730E-08-3.26128673E-12    2
 1.63100004E+04 4.84663193E+01 1.68618235E+01-1.97520835E-01 1.42325393E-03    3
-3.13305118E-06 2.36953508E-09 8.62209726E+03-4.57384521E+01                   4 
C8H8                    C   8H   8O   0N   0G    200.00   2666.67  711.45      1
-5.01692056E+00 8.09394806E-02-6.17266341E-05 2.31780730E-08-3.26128673E-12    2
 1.63100004E+04 4.84663193E+01-5.01692056E+00 8.09394806E-02-6.17266341E-05    3
 2.31780730E-08-3.26128673E-12 1.63100004E+04 4.84663193E+01                   4 
C16H6(L)                C  16H   6O   0N   0G    200.00   2666.67 2000.00      1
-8.02025890E+00 2.01786036E-01-1.59401850E-04 6.32319122E-08-9.53431551E-12    2
 6.74488329E+04 7.67318509E+01-8.02025890E+00 2.01786036E-01-1.59401850E-04    3
 6.32319122E-08-9.53431551E-12 6.74488329E+04 7.67318509E+01                   4 
C16H6                   C  16H   6O   0N   0G    200.00   2666.67 2000.00      1
-8.02025890E+00 2.01786036E-01-1.59401850E-04 6.32319122E-08-9.53431551E-12    2
 6.74488329E+04 7.67318509E+01-8.02025890E+00 2.01786036E-01-1.59401850E-04    3
 6.32319122E-08-9.53431551E-12 6.74488329E+04 7.67318509E+01                   4 
C6H4(L)                 C   6H   4O   0N   0G    200.00   2666.67 2666.67      1
 .299142300E+01 .700064410E-03-.563382800E-07-.923157820E-11 .158275200E-14    2
-.835033800E+03-.135511000E+01 .329812400E+01 .824944120E-03-.814301470E-06    3
-.947543430E-10 .413487200E-12-.101252100E+04-.329409400E+01                   4
C6H4                    C   6H   4O   0N   0G    200.00   2666.67 2666.67      1
 .299142300E+01 .700064410E-03-.563382800E-07-.923157820E-11 .158275200E-14    2
-.835033800E+03-.135511000E+01 .329812400E+01 .824944120E-03-.814301470E-06    3
-.947543430E-10 .413487200E-12-.101252100E+04-.329409400E+01                   4
C16H18(L)               C  16H  18O   0N   0G    200.00   2666.67  813.87      1
-1.12915479E+01 1.74798294E-01-1.32208464E-04 4.80616141E-08-6.38530862E-12    2
 9.44892172E+03 8.48860208E+01 1.49548111E+01-1.10256884E-01 1.26639157E-03    3
-2.64098530E-06 1.81722813E-09-4.11645042E+03-3.85247251E+01                   4 
C16H18                  C  16H  18O   0N   0G    200.00   2666.67  813.87      1
-1.12915479E+01 1.74798294E-01-1.32208464E-04 4.80616141E-08-6.38530862E-12    2
 9.44892172E+03 8.48860208E+01-1.12915479E+01 1.74798294E-01-1.32208464E-04    3
 4.80616141E-08-6.38530862E-12 9.44892172E+03 8.48860208E+01                   4 
C16H16(L)               C  16H  16O   0N   0G    200.00   2666.67  848.47      1
-1.07720578E+01 1.79465813E-01-1.37116856E-04 5.09237992E-08-7.01068790E-12    2
 1.91184140E+04 8.43301206E+01 1.14501740E+01-4.98187695E-02 9.59024448E-04    3
-1.99159075E-06 1.33431638E-09 6.28333835E+03-2.30249326E+01                   4 
C16H16                  C  16H  16O   0N   0G    200.00   2666.67  848.47      1
-1.07720578E+01 1.79465813E-01-1.37116856E-04 5.09237992E-08-7.01068790E-12    2
 1.91184140E+04 8.43301206E+01-1.07720578E+01 1.79465813E-01-1.37116856E-04    3
 5.09237992E-08-7.01068790E-12 1.91184140E+04 8.43301206E+01                   4 
C16H14(L)               C  16H  14O   0N   0G    200.00   2666.67  883.69      1
-1.02216980E+01 1.83929857E-01-1.41573855E-04 5.33854218E-08-7.51541342E-12    2
 2.87844978E+04 8.22559489E+01 8.76755692E+00-2.33364361E-03 7.26693679E-04    3
-1.51590191E-06 9.91293924E-10 1.65964209E+04-1.19585810E+01                   4 
C16H14                  C  16H  14O   0N   0G    200.00   2666.67  883.69      1
-1.02216980E+01 1.83929857E-01-1.41573855E-04 5.33854218E-08-7.51541342E-12    2
 2.87844978E+04 8.22559489E+01-1.02216980E+01 1.83929857E-01-1.41573855E-04    3
 5.33854218E-08-7.51541342E-12 2.87844978E+04 8.22559489E+01                   4 
C24H26(L)               C  24H  26O   0N   0G    200.00   2666.67  909.68      1
-1.79933083E+01 2.66025208E-01-2.06073304E-04 7.69565207E-08-1.06035270E-11    2
 1.63240868E+04 1.23124788E+02 9.49819890E+00 4.90534022E-03 9.91931302E-04    3
-2.04705919E-06 1.31489438E-09-2.77038811E+03-1.51678745E+01                   4 
C24H26                  C  24H  26O   0N   0G    200.00   2666.67  909.68      1
-1.79933083E+01 2.66025208E-01-2.06073304E-04 7.69565207E-08-1.06035270E-11    2
 1.63240868E+04 1.23124788E+02-1.79933083E+01 2.66025208E-01-2.06073304E-04    3
 7.69565207E-08-1.06035270E-11 1.63240868E+04 1.23124788E+02                   4 
C24H24(L)               C  24H  24O   0N   0G    200.00   2666.67  931.81      1
-1.74429485E+01 2.70489252E-01-2.10530303E-04 7.94181433E-08-1.11082525E-11    2
 2.59901706E+04 1.22436911E+02 7.32375283E+00 4.37869463E-02 8.10863884E-04    3
-1.69215804E-06 1.06986256E-09 7.88949557E+03-4.68782999E+00                   4 
C24H24                  C  24H  24O   0N   0G    200.00   2666.67  931.81      1
-1.74429485E+01 2.70489252E-01-2.10530303E-04 7.94181433E-08-1.11082525E-11    2
 2.59901706E+04 1.22436911E+02-1.74429485E+01 2.70489252E-01-2.10530303E-04    3
 7.94181433E-08-1.11082525E-11 2.59901706E+04 1.22436911E+02                   4 
C24H22(L)               C  24H  22O   0N   0G    200.00   2666.67  952.79      1
-1.68925887E+01 2.74953297E-01-2.14987302E-04 8.18797659E-08-1.16129781E-11    2
 3.56562544E+04 1.20362739E+02 1.29057016E+01-1.71245253E-02 1.04628131E-03    3
-2.02425625E-06 1.21449420E-09 1.75630243E+04-2.27391620E+01                   4 
C24H22                  C  24H  22O   0N   0G    200.00   2666.67  952.79      1
-1.68925887E+01 2.74953297E-01-2.14987302E-04 8.18797659E-08-1.16129781E-11    2
 3.56562544E+04 1.20362739E+02-1.68925887E+01 2.74953297E-01-2.14987302E-04    3
 8.18797659E-08-1.16129781E-11 3.56562544E+04 1.20362739E+02                   4 
C16H17(L)               C  16H  17O   0N   0G    200.00   2666.67  813.88      1
-9.26941944E+00 1.64902752E-01-1.21422537E-04 4.26025258E-08-5.38079367E-12    2
 2.25225779E+04 7.43157235E+01 1.69772236E+01-1.20152858E-01 1.27717766E-03    3
-2.64644439E-06 1.81823264E-09 8.95635638E+03-4.91089204E+01                   4 
C16H17                  C  16H  17O   0N   0G    200.00   2666.67  813.88      1
-9.26941944E+00 1.64902752E-01-1.21422537E-04 4.26025258E-08-5.38079367E-12    2
 2.25225779E+04 7.43157235E+01-9.26941944E+00 1.64902752E-01-1.21422537E-04    3
 4.26025258E-08-5.38079367E-12 2.25225779E+04 7.43157235E+01                   4 
C16H17_T(L)             C  16H  17O   0N   0G    200.00   2666.67  813.90      1
-1.13262889E+01 1.74816515E-01-1.35431861E-04 5.04755011E-08-6.92224838E-12    2
 2.43578807E+04 8.38061541E+01 1.49199851E+01-1.10238472E-01 1.26316809E-03    3
-2.63857142E-06 1.81669119E-09 1.07908428E+04-3.96163960E+01                   4 
C16H17_T                C  16H  17O   0N   0G    200.00   2666.67  813.90      1
-1.13262889E+01 1.74816515E-01-1.35431861E-04 5.04755011E-08-6.92224838E-12    2
 2.43578807E+04 8.38061541E+01-1.13262889E+01 1.74816515E-01-1.35431861E-04    3
 5.04755011E-08-6.92224838E-12 2.43578807E+04 8.38061541E+01                   4 
C16H15(L)               C  16H  15O   0N   0G    200.00   2666.67  848.49      1
-8.71905967E+00 1.69366797E-01-1.25879536E-04 4.50641484E-08-5.88551919E-12    2
 3.21886617E+04 7.36278461E+01 1.35034964E+01-5.99182927E-02 9.70261963E-04    3
-1.99745040E-06 1.33544155E-09 1.93526964E+04-3.37397288E+01                   4 
C16H15                  C  16H  15O   0N   0G    200.00   2666.67  848.49      1
-8.71905967E+00 1.69366797E-01-1.25879536E-04 4.50641484E-08-5.88551919E-12    2
 3.21886617E+04 7.36278461E+01-8.71905967E+00 1.69366797E-01-1.25879536E-04    3
 4.50641484E-08-5.88551919E-12 3.21886617E+04 7.36278461E+01                   4 
C16H15_T(L)             C  16H  15O   0N   0G    200.00   2666.67  848.50      1
-1.07759292E+01 1.79280560E-01-1.39888860E-04 5.29371237E-08-7.42697390E-12    2
 3.40239645E+04 8.31182768E+01 1.14462226E+01-5.00038475E-02 9.56252373E-04    3
-1.98957743E-06 1.33390009E-09 2.11871580E+04-2.42477466E+01                   4 
C16H15_T                C  16H  15O   0N   0G    200.00   2666.67  848.50      1
-1.07759292E+01 1.79280560E-01-1.39888860E-04 5.29371237E-08-7.42697390E-12    2
 3.40239645E+04 8.31182768E+01-1.07759292E+01 1.79280560E-01-1.39888860E-04    3
 5.29371237E-08-7.42697390E-12 3.40239645E+04 8.31182768E+01                   4 
C16H15_A(L)             C  16H  15O   0N   0G    200.00   2666.67  848.58      1
-1.25326384E+01 1.83700476E-01-1.43733283E-04 5.43510708E-08-7.61026701E-12    2
 3.63562859E+04 9.11338146E+01 9.68940239E+00-4.55838095E-02 9.52407919E-04    3
-1.98816348E-06 1.33371680E-09 2.35145520E+04-1.62437017E+01                   4 
C16H15_A                C  16H  15O   0N   0G    200.00   2666.67  848.58      1
-1.25326384E+01 1.83700476E-01-1.43733283E-04 5.43510708E-08-7.61026701E-12    2
 3.63562859E+04 9.11338146E+01-1.25326384E+01 1.83700476E-01-1.43733283E-04    3
 5.43510708E-08-7.61026701E-12 3.63562859E+04 9.11338146E+01                   4 
C16H13(L)               C  16H  13O   0N   0G    200.00   2666.67  883.70      1
-8.16869989E+00 1.73830841E-01-1.30336535E-04 4.75257710E-08-6.39024472E-12    2
 4.18547454E+04 7.15536745E+01 1.08209091E+01-1.24332150E-02 7.37931217E-04    3
-1.52176156E-06 9.92419094E-10 2.96658454E+04-2.26709569E+01                   4 
C16H13                  C  16H  13O   0N   0G    200.00   2666.67  883.70      1
-8.16869989E+00 1.73830841E-01-1.30336535E-04 4.75257710E-08-6.39024472E-12    2
 4.18547454E+04 7.15536745E+01-8.16869989E+00 1.73830841E-01-1.30336535E-04    3
 4.75257710E-08-6.39024472E-12 4.18547454E+04 7.15536745E+01                   4 
C16H13_A(L)             C  16H  13O   0N   0G    200.00   2666.67  883.80      1
-1.19822787E+01 1.88164521E-01-1.48190281E-04 5.68126934E-08-8.11499253E-12    2
 4.60223697E+04 8.90596429E+01 7.00676779E+00 1.90134428E-03 7.20077138E-04    3
-1.51247463E-06 9.90694345E-10 3.38281756E+04-5.17477384E+00                   4 
C16H13_A                C  16H  13O   0N   0G    200.00   2666.67  883.80      1
-1.19822787E+01 1.88164521E-01-1.48190281E-04 5.68126934E-08-8.11499253E-12    2
 4.60223697E+04 8.90596429E+01-1.19822787E+01 1.88164521E-01-1.48190281E-04    3
 5.68126934E-08-8.11499253E-12 4.60223697E+04 8.90596429E+01                   4 
C24H25(L)               C  24H  25O   0N   0G    200.00   2666.67  909.68      1
-1.59403102E+01 2.55926192E-01-1.94835984E-04 7.10968699E-08-9.47835831E-12    2
 2.93943345E+04 1.12422514E+02 1.15515713E+01-5.19426047E-03 1.00316885E-03    3
-2.05291884E-06 1.31601955E-09 1.02995694E+04-2.58882927E+01                   4 
C24H25                  C  24H  25O   0N   0G    200.00   2666.67  909.68      1
-1.59403102E+01 2.55926192E-01-1.94835984E-04 7.10968699E-08-9.47835831E-12    2
 2.93943345E+04 1.12422514E+02-1.59403102E+01 2.55926192E-01-1.94835984E-04    3
 7.10968699E-08-9.47835831E-12 2.93943345E+04 1.12422514E+02                   4 
C24H25_T(L)             C  24H  25O   0N   0G    200.00   2666.67  909.68      1
-1.79971797E+01 2.65839955E-01-2.08845308E-04 7.89698453E-08-1.10198130E-11    2
 3.12296373E+04 1.21912944E+02 9.49423524E+00 4.72028891E-03 9.89159216E-04    3
-2.04504586E-06 1.31447810E-09 1.21347062E+04-1.63935391E+01                   4 
C24H25_T                C  24H  25O   0N   0G    200.00   2666.67  909.68      1
-1.79971797E+01 2.65839955E-01-2.08845308E-04 7.89698453E-08-1.10198130E-11    2
 3.12296373E+04 1.21912944E+02-1.79971797E+01 2.65839955E-01-2.08845308E-04    3
 7.89698453E-08-1.10198130E-11 3.12296373E+04 1.21912944E+02                   4 
C24H23(L)               C  24H  23O   0N   0G    200.00   2666.67  931.82      1
-1.53899504E+01 2.60390236E-01-1.99292983E-04 7.35584925E-08-9.98308383E-12    2
 3.90604182E+04 1.11734636E+02 9.37714795E+00 3.36873096E-02 8.22101443E-04    3
-1.69801769E-06 1.07098773E-09 2.09586389E+04-1.53995455E+01                   4 
C24H23                  C  24H  23O   0N   0G    200.00   2666.67  931.82      1
-1.53899504E+01 2.60390236E-01-1.99292983E-04 7.35584925E-08-9.98308383E-12    2
 3.90604182E+04 1.11734636E+02-1.53899504E+01 2.60390236E-01-1.99292983E-04    3
 7.35584925E-08-9.98308383E-12 3.90604182E+04 1.11734636E+02                   4 
C24H23_T(L)             C  24H  23O   0N   0G    200.00   2666.67  931.84      1
-1.74468199E+01 2.70304000E-01-2.13302307E-04 8.14314679E-08-1.15245385E-11    2
 4.08957211E+04 1.21225067E+02 7.31978326E+00 4.36019078E-02 8.08091792E-04    3
-1.69014472E-06 1.06944627E-09 2.27929455E+04-5.90860218E+00                   4 
C24H23_T                C  24H  23O   0N   0G    200.00   2666.67  931.84      1
-1.74468199E+01 2.70304000E-01-2.13302307E-04 8.14314679E-08-1.15245385E-11    2
 4.08957211E+04 1.21225067E+02-1.74468199E+01 2.70304000E-01-2.13302307E-04    3
 8.14314679E-08-1.15245385E-11 4.08957211E+04 1.21225067E+02                   4 
C24H23_A(L)             C  24H  23O   0N   0G    200.00   2666.67  931.91      1
-1.92035291E+01 2.74723916E-01-2.17146729E-04 8.28454149E-08-1.17078316E-11    2
 4.32280425E+04 1.29240605E+02 5.56293826E+00 4.80219729E-02 8.04247330E-04    3
-1.68873077E-06 1.06926298E-09 2.51193225E+04 2.09278260E+00                   4 
C24H23_A                C  24H  23O   0N   0G    200.00   2666.67  931.91      1
-1.92035291E+01 2.74723916E-01-2.17146729E-04 8.28454149E-08-1.17078316E-11    2
 4.32280425E+04 1.29240605E+02-1.92035291E+01 2.74723916E-01-2.17146729E-04    3
 8.28454149E-08-1.17078316E-11 4.32280425E+04 1.29240605E+02                   4 
C24H21(L)               C  24H  21O   0N   0G    200.00   2666.67  952.79      1
-1.48395906E+01 2.64854281E-01-2.03749981E-04 7.60201151E-08-1.04878094E-11    2
 4.87265020E+04 1.09660465E+02 1.49591225E+01-2.72242043E-02 1.05751888E-03    3
-2.03011590E-06 1.21561937E-09 3.06327385E+04-3.34566359E+01                   4 
C24H21                  C  24H  21O   0N   0G    200.00   2666.67  952.79      1
-1.48395906E+01 2.64854281E-01-2.03749981E-04 7.60201151E-08-1.04878094E-11    2
 4.87265020E+04 1.09660465E+02-1.48395906E+01 2.64854281E-01-2.03749981E-04    3
 7.60201151E-08-1.04878094E-11 4.87265020E+04 1.09660465E+02                   4 
C24H21_A(L)             C  24H  21O   0N   0G    200.00   2666.67  952.83      1
-1.86531694E+01 2.79187960E-01-2.21603728E-04 8.53070375E-08-1.22125572E-11    2
 5.28941263E+04 1.27166433E+02 1.11448720E+01-1.28894745E-02 1.03966475E-03    3
-2.02082898E-06 1.21389462E-09 3.47971483E+04-1.59531885E+01                   4 
C24H21_A                C  24H  21O   0N   0G    200.00   2666.67  952.83      1
-1.86531694E+01 2.79187960E-01-2.21603728E-04 8.53070375E-08-1.22125572E-11    2
 5.28941263E+04 1.27166433E+02-1.86531694E+01 2.79187960E-01-2.21603728E-04    3
 8.53070375E-08-1.22125572E-11 5.28941263E+04 1.27166433E+02                   4 
C7H8(L)                 C   7H   8O   0N   0G    200.00   2666.67 2666.67      1
 .299142300E+01 .700064410E-03-.563382800E-07-.923157820E-11 .158275200E-14    2
-.835033800E+03-.135511000E+01 .329812400E+01 .824944120E-03-.814301470E-06    3
-.947543430E-10 .413487200E-12-.101252100E+04-.329409400E+01                   4
C7H8                    C   7H   8O   0N   0G    200.00   2666.67 2666.67      1
-3.97858254E+00 6.73241089E-02-4.40050719E-05 1.31314555E-08-1.20002490E-12    2
 4.82838288E+03 4.22338959E+01-3.97858254E+00 6.73241089E-02-4.40050719E-05    3
 1.31314555E-08-1.20002490E-12 4.82838288E+03 4.22338959E+01                   4 
C9H10(L)                C   9H  10O   0N   0G    200.00   2666.67 2666.67      1
 .299142300E+01 .700064410E-03-.563382800E-07-.923157820E-11 .158275200E-14    2
-.835033800E+03-.135511000E+01 .329812400E+01 .824944120E-03-.814301470E-06    3
-.947543430E-10 .413487200E-12-.101252100E+04-.329409400E+01                   4
C9H10                   C   9H  10O   0N   0G    200.00   2666.67 2666.67      1
-4.11833048E+00 8.91952269E-02-6.47850498E-05 2.28352163E-08-2.90711165E-12    2
 1.16438592E+04 4.57645038E+01-4.11833048E+00 8.91952269E-02-6.47850498E-05    3
 2.28352163E-08-2.90711165E-12 1.16438592E+04 4.57645038E+01                   4 
C15H16(L)               C  15H  16O   0N   0G    200.00   2666.67 2666.67      1
 .299142300E+01 .700064410E-03-.563382800E-07-.923157820E-11 .158275200E-14    2
-.835033800E+03-.135511000E+01 .329812400E+01 .824944120E-03-.814301470E-06    3
-.947543430E-10 .413487200E-12-.101252100E+04-.329409400E+01                   4
C15H16                  C  15H  16O   0N   0G    200.00   2666.67 2666.67      1
-1.13224175E+01 1.75001768E-01-1.32659858E-04 4.84621766E-08-6.50596238E-12    2
 9.45233024E+03 8.50179979E+01-1.13224175E+01 1.75001768E-01-1.32659858E-04    3
 4.84621766E-08-6.50596238E-12 9.45233024E+03 8.50179979E+01                   4 
C15H15_T(L)             C  15H  15O   0N   0G    200.00   2666.67 2666.67      1
 .299142300E+01 .700064410E-03-.563382800E-07-.923157820E-11 .158275200E-14    2
-.835033800E+03-.135511000E+01 .329812400E+01 .824944120E-03-.814301470E-06    3
-.947543430E-10 .413487200E-12-.101252100E+04-.329409400E+01                   4
C15H15_T                C  15H  15O   0N   0G    200.00   2666.67 2666.67      1
-1.13262889E+01 1.74816515E-01-1.35431861E-04 5.04755011E-08-6.92224838E-12    2
 2.43578807E+04 8.38061541E+01-1.13262889E+01 1.74816515E-01-1.35431861E-04    3
 5.04755011E-08-6.92224838E-12 2.43578807E+04 8.38061541E+01                   4 
C9H12(L)                C   9H  12O   0N   0G    200.00   2666.67 2666.67      1
 .299142300E+01 .700064410E-03-.563382800E-07-.923157820E-11 .158275200E-14    2
-.835033800E+03-.135511000E+01 .329812400E+01 .824944120E-03-.814301470E-06    3
-.947543430E-10 .413487200E-12-.101252100E+04-.329409400E+01                   4
C9H12                   C   9H  12O   0N   0G    200.00   2666.67 2666.67      1
-2.83061828E+00 7.19760316E-02-3.26200104E-05-3.66016553E-09 4.70861103E-12    2
 2.37951511E+03 3.91262662E+01-2.83061828E+00 7.19760316E-02-3.26200104E-05    3
-3.66016553E-09 4.70861103E-12 2.37951511E+03 3.91262662E+01                   4 
C6H6(L)                 C   6H   6O   0N   0G    200.00   2666.67 2666.67      1
 .299142300E+01 .700064410E-03-.563382800E-07-.923157820E-11 .158275200E-14    2
-.835033800E+03-.135511000E+01 .329812400E+01 .824944120E-03-.814301470E-06    3
-.947543430E-10 .413487200E-12-.101252100E+04-.329409400E+01                   4
C6H6                    C   6H   6O   0N   0G    200.00   2666.67 2666.67      1
-5.93794463E+00 6.64367077E-02-5.27988579E-05 2.08173112E-08-3.11741177E-12    2
 9.40129228E+03 5.05630192E+01-5.93794463E+00 6.64367077E-02-5.27988579E-05    3
 2.08173112E-08-3.11741177E-12 9.40129228E+03 5.05630192E+01                   4 
C2H4(L)                 C   2H   4O   0N   0G    200.00   2666.67 2666.67      1
 .299142300E+01 .700064410E-03-.563382800E-07-.923157820E-11 .158275200E-14    2
-.835033800E+03-.135511000E+01 .329812400E+01 .824944120E-03-.814301470E-06    3
-.947543430E-10 .413487200E-12-.101252100E+04-.329409400E+01                   4
C2H4                    C   2H   4O   0N   0G    200.00   2666.67 2666.67      1
 6.23454636E-01 1.69076327E-02-6.00269010E-06-1.23452285E-09 9.78009102E-13    2
 5.52420164E+03 1.44781328E+01 6.23454636E-01 1.69076327E-02-6.00269010E-06    3
-1.23452285E-09 9.78009102E-13 5.52420164E+03 1.44781328E+01                   4 
C3H6(L)                 C   3H   6O   0N   0G    200.00   2666.67 2666.67      1
 .299142300E+01 .700064410E-03-.563382800E-07-.923157820E-11 .158275200E-14    2
-.835033800E+03-.135511000E+01 .329812400E+01 .824944120E-03-.814301470E-06    3
-.947543430E-10 .413487200E-12-.101252100E+04-.329409400E+01                   4
C3H6                    C   3H   6O   0N   0G    200.00   2666.67 2666.67      1
 1.22877043E+00 2.43184838E-02-6.58500897E-06-3.31734471E-09 1.70707739E-12    2
 1.22023430E+03 1.42172784E+01 1.22877043E+00 2.43184838E-02-6.58500897E-06    3
-3.31734471E-09 1.70707739E-12 1.22023430E+03 1.42172784E+01                   4 
C4H8-1(L)               C   4H   8O   0N   0G    200.00   2666.67 2666.67      1
 .299142300E+01 .700064410E-03-.563382800E-07-.923157820E-11 .158275200E-14    2
-.835033800E+03-.135511000E+01 .329812400E+01 .824944120E-03-.814301470E-06    3
-.947543430E-10 .413487200E-12-.101252100E+04-.329409400E+01                   4
C4H8-1                  C   4H   8O   0N   0G    200.00   2666.67 2666.67      1
 .299142300E+01 .700064410E-03-.563382800E-07-.923157820E-11 .158275200E-14    2
-.835033800E+03-.135511000E+01 .329812400E+01 .824944120E-03-.814301470E-06    3
-.947543430E-10 .413487200E-12-.101252100E+04-.329409400E+01                   4
END