! This thermodynamic database was obtained by fitting the thermodynamic properties
! extracted from the following file: thermo.CHEMKIN.CKT
! The thermodynamic properties are fitted in order to preserve not only the 
! continuity of each function at the intermediate temperature, but also the  continuity
! of the derivatives, from the 1st to the 3rd order
! The intermediate temperatures are chosen in order to minimize the fitting error.
! Last update: 11/20/2019

THERMO ALL
270.   1000.   3500.
!!!!!!!!!!!!!!!
!SOLID SPECIES!
!!!!!!!!!!!!!!!
CELL                    C   6H  10O   5     S 300.0    4000.0    1000.0        1
 2.92516210e+01 1.95010807e-02 0.00000000e+00 0.00000000e+00 0.00000000e+00    2
-1.25919988e+05 0.00000000e+00 2.92516210e+01 1.95010807e-02 0.00000000e+00    3
 0.00000000e+00 0.00000000e+00-1.25919988e+05 0.00000000e+00                   4
GMSW                    C   5H   8O   4     S 300.0    4000.0    1000.0        1
 2.38346742e+01 1.58897828e-02 0.00000000e+00 0.00000000e+00 0.00000000e+00    2
-1.03039895e+05 0.00000000e+00 2.38346742e+01 1.58897828e-02 0.00000000e+00    3
 0.00000000e+00 0.00000000e+00-1.03039895e+05 0.00000000e+00                   4
XYHW                    C   5H   8O   4     S 300.0    4000.0    1000.0        1
 2.38346742e+01 1.58897828e-02 0.00000000e+00 0.00000000e+00 0.00000000e+00    2
-1.07071125e+05 0.00000000e+00 2.38346742e+01 1.58897828e-02 0.00000000e+00    3
 0.00000000e+00 0.00000000e+00-1.07071125e+05 0.00000000e+00                   4
XYGR                    C   5H   8O   4     S 300.0    4000.0    1000.0        1
 2.38346742e+01 1.58897828e-02 0.00000000e+00 0.00000000e+00 0.00000000e+00    2
-1.09720219e+05 0.00000000e+00 2.38346742e+01 1.58897828e-02 0.00000000e+00    3
 0.00000000e+00 0.00000000e+00-1.09720219e+05 0.00000000e+00                   4
LIGC                    C  15H  14O   4     S 300.0    4000.0    1000.0        1
 4.65946547e+01 3.10631031e-02 0.00000000e+00 0.00000000e+00 0.00000000e+00    2
-1.03601488e+05 0.00000000e+00 4.65946547e+01 3.10631031e-02 0.00000000e+00    3
 0.00000000e+00 0.00000000e+00-1.03601488e+05 0.00000000e+00                   4
LIGH                    C  22H  28O   9     S 300.0    4000.0    1000.0        1
 7.87405700e+01 5.24937133e-02 0.00000000e+00 0.00000000e+00 0.00000000e+00    2
-2.24303494e+05 0.00000000e+00 7.87405700e+01 5.24937133e-02 0.00000000e+00    3
 0.00000000e+00 0.00000000e+00-2.24303494e+05 0.00000000e+00                   4
LIGO                    C  20H  22O  10     S 300.0    4000.0    1000.0        1
 7.62020414e+01 5.08013609e-02 0.00000000e+00 0.00000000e+00 0.00000000e+00    2
-2.51966073e+05 0.00000000e+00 7.62020414e+01 5.08013609e-02 0.00000000e+00    3
 0.00000000e+00 0.00000000e+00-2.51966073e+05 0.00000000e+00                   4
TGL                     C  57H 100O   7     S 300.0    4000.0    1000.0        1
 1.61902232e+02 1.07934821e-01 0.00000000e+00 0.00000000e+00 0.00000000e+00    2
-2.44625348e+05 0.00000000e+00 1.61902232e+02 1.07934821e-01 0.00000000e+00    3
 0.00000000e+00 0.00000000e+00-2.44625348e+05 0.00000000e+00                   4
TANN                    C  15H  12O   7     S 300.0    4000.0    1000.0        1
 5.48900197e+01 3.65933465e-02 0.00000000e+00 0.00000000e+00 0.00000000e+00    2
-1.59515809e+05 0.00000000e+00 5.48900197e+01 3.65933465e-02 0.00000000e+00    3
 0.00000000e+00 0.00000000e+00-1.59515809e+05 0.00000000e+00                   4
MOIST                   C   0H   2O   1     S 300.0    4000.0    1000.0        1   !From DH vaporization  engineering tool box
 9.04470000E+00 1.60000000E-03-6.00000000E-06 6.00000000E-09-2.00000000E-12    2
-3.70865499E+04-2.88280137E+02 9.04470000E+00 1.60000000E-03-6.00000000E-06    3
 6.00000000E-09-2.00000000E-12-3.70865499E+04-2.88280137E+02                   4
ASH                     C   0H   0K   1     S 300.0    4000.0    1000.0        1
 1.80625030E+01 1.20416687E-02 0.00000000E+00 0.00000000E+00 0.00000000E+00    2
-1.55939610E+04 0.00000000E+00 1.80625030E+01 1.20416687E-02 0.00000000E+00    3
 0.00000000E+00	0.00000000E+00-1.55939610E+04 0.00000000E+00                   4
CELLA                   C   6H  10O   5     S 300.0    4000.0    1000.0        1
 2.92516210e+01 1.95010807e-02 0.00000000e+00 0.00000000e+00 0.00000000e+00    2
-1.25919988e+05 0.00000000e+00 2.92516210e+01 1.95010807e-02 0.00000000e+00    3
 0.00000000e+00 0.00000000e+00-1.25919988e+05 0.00000000e+00                   4
HCE1                    C   5H   8O   4     S 300.0    4000.0    1000.0        1
 2.38346742e+01 1.58897828e-02 0.00000000e+00 0.00000000e+00 0.00000000e+00    2
-9.92237373e+04 0.00000000e+00 2.38346742e+01 1.58897828e-02 0.00000000e+00    3
 0.00000000e+00 0.00000000e+00-9.92237373e+04 0.00000000e+00                   4
HCE2                    C   5H   8O   4     S 300.0    4000.0    1000.0        1
 2.38346742e+01 1.58897828e-02 0.00000000e+00 0.00000000e+00 0.00000000e+00    2
-1.10741538e+05 0.00000000e+00 2.38346742e+01 1.58897828e-02 0.00000000e+00    3
 0.00000000e+00 0.00000000e+00-1.10741538e+05 0.00000000e+00                   4
LIGCC                   C  15H  14O   4     S 300.0    4000.0    1000.0        1
 4.65946547e+01 3.10631031e-02 0.00000000e+00 0.00000000e+00 0.00000000e+00    2
-7.69910033e+04 0.00000000e+00 4.65946547e+01 3.10631031e-02 0.00000000e+00    3
 0.00000000e+00 0.00000000e+00-7.69910033e+04 0.00000000e+00                   4
LIGOH                   C  19H  22O   8     S 300.0    4000.0    1000.0        1
 6.82624420e+01 4.55082946e-02 0.00000000e+00 0.00000000e+00 0.00000000e+00    2
-1.86693370e+05 0.00000000e+00 6.82624420e+01 4.55082946e-02 0.00000000e+00    3
 0.00000000e+00 0.00000000e+00-1.86693370e+05 0.00000000e+00                   4
LIG                     C  11H  12O   4     S 300.0    4000.0    1000.0        1
 3.75634032e+01 2.50422688e-02 0.00000000e+00 0.00000000e+00 0.00000000e+00    2
-9.42255209e+04 0.00000000e+00 3.75634032e+01 2.50422688e-02 0.00000000e+00    3
 0.00000000e+00 0.00000000e+00-9.42255209e+04 0.00000000e+00                   4
ITANN                   C   8H   4O   4     S 300.0    4000.0    1000.0        1
 2.96079278e+01 1.97386186e-02 0.00000000e+00 0.00000000e+00 0.00000000e+00    2
-9.52526629e+04 0.00000000e+00 2.96079278e+01 1.97386186e-02 0.00000000e+00    3
 0.00000000e+00 0.00000000e+00-9.52526629e+04 0.00000000e+00                   4
CHAR                    C   1               S 300.0    4000.0    1000.0        1
-1.00796361E-01	4.99828606E-03 0.00000000E+00 0.00000000E+00 0.00000000E+00    2           
-1.94683964E+02 0.00000000E+00-1.00796361E-01 4.99828606E-03 0.00000000E+00    3
 0.00000000E+00	0.00000000E+00-1.94683964E+02 0.00000000E+00                   4 
CHARO                   C   1H   0O   1     S 300.0    4000.0    1000.0        1
-1.00796361E-01	4.99828606E-03 0.00000000E+00 0.00000000E+00 0.00000000E+00    2           
-1.94683964E+02 0.00000000E+00-1.00796361E-01 4.99828606E-03 0.00000000E+00    3
 0.00000000E+00	0.00000000E+00-1.94683964E+02 0.00000000E+00                   4 
COH2S                   C   1H   2O   1     S 300.0    4000.0    1000.0        1
 5.41694681e+00 3.61129787e-03 0.00000000e+00 0.00000000e+00 0.00000000e+00    2
-4.28130513e+04 0.00000000e+00 5.41694681e+00 3.61129787e-03 0.00000000e+00    3
 0.00000000e+00 0.00000000e+00-4.28130513e+04 0.00000000e+00                   4
CO2S                    C   1H   0O   2     S 300.0    4000.0    1000.0        1
 7.93959940e+00 5.29306627e-03 0.00000000e+00 0.00000000e+00 0.00000000e+00    2
-4.00155073e+04 0.00000000e+00 7.93959940e+00 5.29306627e-03 0.00000000e+00    3
 0.00000000e+00 0.00000000e+00-4.00155073e+04 0.00000000e+00                   4
COS                     C   1H   0O   1     S 300.0    4000.0    1000.0        1
 5.05324318e+00 3.36882879e-03 0.00000000e+00 0.00000000e+00 0.00000000e+00    2
-9.45019792e+03 0.00000000e+00 5.05324318e+00 3.36882879e-03 0.00000000e+00    3
 0.00000000e+00 0.00000000e+00-9.45019792e+03 0.00000000e+00                   4
COSTIFFS                C   1H   0O   1     S 300.0    4000.0    1000.0        1
 5.05324318e+00 3.36882879e-03 0.00000000e+00 0.00000000e+00 0.00000000e+00    2
-9.45019792e+03 0.00000000e+00 5.05324318e+00 3.36882879e-03 0.00000000e+00    3
 0.00000000e+00 0.00000000e+00-9.45019792e+03 0.00000000e+00                   4
CH3OHS                  C   1H   4O   1     S 300.0    4000.0    1000.0        1
 5.78065044e+00 3.85376696e-03 0.00000000e+00 0.00000000e+00 0.00000000e+00    2
-2.63330830e+04 0.00000000e+00 5.78065044e+00 3.85376696e-03 0.00000000e+00    3
 0.00000000e+00 0.00000000e+00-2.63330830e+04 0.00000000e+00                   4
CH4S                    C   1H   4O   0     S 300.0    4000.0    1000.0        1
 2.89429422e+00 1.92952948e-03 0.00000000e+00 0.00000000e+00 0.00000000e+00    2
-9.21591184e+03 0.00000000e+00 2.89429422e+00 1.92952948e-03 0.00000000e+00    3
 0.00000000e+00 0.00000000e+00-9.21591184e+03 0.00000000e+00                   4
C2H4S                   C   2H   4O   0     S 300.0    4000.0    1000.0        1
 5.06118118e+00 3.37412079e-03 0.00000000e+00 0.00000000e+00 0.00000000e+00    2
 4.92120269e+03 0.00000000e+00 5.06118118e+00 3.37412079e-03 0.00000000e+00    3
 0.00000000e+00 0.00000000e+00 4.92120269e+03 0.00000000e+00                   4
C6H5OHS                 C   6H   6O   1     S 300.0    4000.0    1000.0        1
 1.69787889e+01 1.13191926e-02 0.00000000e+00 0.00000000e+00 0.00000000e+00    2
-1.86144892e+04 0.00000000e+00 1.69787889e+01 1.13191926e-02 0.00000000e+00    3
 0.00000000e+00 0.00000000e+00-1.86144892e+04 0.00000000e+00                   4
CH2OS                   C   1H   2O   1     S 300.0    4000.0    1000.0        1
 5.41694681e+00 3.61129787e-03 0.00000000e+00 0.00000000e+00 0.00000000e+00    2
-2.45084187e+04 0.00000000e+00 5.41694681e+00 3.61129787e-03 0.00000000e+00    3
 0.00000000e+00 0.00000000e+00-2.45084187e+04 0.00000000e+00                   4
H2S                     C   0H   2O   0     S 300.0    4000.0    1000.0        1
 3.63703630e-01 2.42469087e-04 0.00000000e+00 0.00000000e+00 0.00000000e+00    2
 1.09946128e+03 0.00000000e+00 3.63703630e-01 2.42469087e-04 0.00000000e+00    3
 0.00000000e+00 0.00000000e+00 1.09946128e+03 0.00000000e+00                   4
C2H6S                   C   2H   6O   0     S 300.0    4000.0    1000.0        1
 5.42488481e+00 3.61658988e-03 0.00000000e+00 0.00000000e+00 0.00000000e+00    2
-1.10454007e+04 0.00000000e+00 5.42488481e+00 3.61658988e-03 0.00000000e+00    3
 0.00000000e+00 0.00000000e+00-1.10454007e+04 0.00000000e+00                   4

!!!!!!!!!!!!!
!GAS SPECIES!
!!!!!!!!!!!!! 

AR                      AR  1               G    200.00   3500.00  820.00      1
 2.50013930e+00-3.98275056e-07 3.45878291e-10-1.18292362e-13 1.38552083e-17    2
-7.45407890e+02 4.37897364e+00 2.49974490e+00 1.52564555e-06-3.17348868e-09    3
 2.74298160e-12-8.58484413e-16-7.45343208e+02 4.38079814e+00                   4
N2                      N   2               G    200.00   3500.00 1050.00      1
 2.81166076e+00 1.67067343e-03-6.79997337e-07 1.32881347e-10-1.02767403e-14    2
-8.69811587e+02 6.64838035e+00 3.73100682e+00-1.83159728e-03 4.32324654e-06    3
-3.04378144e-09 7.46071541e-13-1.06287426e+03 2.16821198e+00                   4
HE                      HE  1               G    200.00   3500.00  850.00      1
 2.50020615e+00-5.42574673e-07 4.63925536e-10-1.57302034e-13 1.82971341e-17    2
-7.45426807e+02 9.27648991e-01 2.49964853e+00 2.08151081e-06-4.16681355e-09    3
 3.47465019e-12-1.04992411e-15-7.45332012e+02 9.30248553e-01                   4
H2                      H   2               G    200.00   3500.00  700.00      1
 3.78199882e+00-1.01873257e-03 1.24226228e-06-4.19011878e-10 4.75543765e-14    2
-1.10283024e+03-5.60525913e+00 2.64204435e+00 5.49529297e-03-1.27163639e-05    3
 1.28749178e-08-4.70027765e-12-9.43236610e+02-5.12230966e-01                   4
H                       H   1               G    200.00   3500.00  860.00      1
 2.50031492e+00-7.73403020e-07 6.39349560e-10-2.12554687e-13 2.44483701e-17    2
 2.54736474e+04-4.48357210e-01 2.49950545e+00 2.99160564e-06-5.92752602e-09    3
 4.87804654e-12-1.45537757e-15 2.54737866e+04-4.44574039e-01                   4
O2                      O   2               G    200.00   3500.00  700.00      1
 2.82012407e+00 2.48211359e-03-1.51202095e-06 4.48556206e-10-4.87305673e-14    2
-9.31350151e+02 7.94914553e+00 3.74403921e+00-2.79740147e-03 9.80122559e-06    3
-1.03259643e-08 3.79931247e-12-1.06069827e+03 3.82132646e+00                   4
O                       O   1               G    200.00   3500.00  720.00      1
 2.62549144e+00-2.08959657e-04 1.33918551e-07-3.85875904e-11 4.38918689e-15    2
 2.92061519e+04 4.48358516e+00 3.14799200e+00-3.11174057e-03 6.18137878e-06    3
-5.63808780e-09 1.94866009e-12 2.91309118e+04 2.13446554e+00                   4
H2O                     H   2O   1          G    200.00   3500.00 1420.00      1
 2.66777069e+00 3.05768864e-03-9.00442530e-07 1.43361590e-10-1.00857860e-14    2
-2.98875645e+04 6.91191161e+00 4.06061172e+00-8.65807224e-04 3.24409535e-06    3
-1.80243084e-09 3.32483304e-13-3.02831314e+04-2.96150501e-01                   4
OH                      H   1O   1          G    200.00   3500.00 1700.00      1
 2.49867381e+00 1.66635254e-03-6.28251336e-07 1.28346754e-10-1.05735839e-14    2
 3.88110712e+03 7.78218797e+00 3.91354630e+00-1.66275921e-03 2.30920021e-06    3
-1.02359503e-09 1.58829619e-13 3.40005047e+03 2.05474752e-01                   4
H2O2                    H   2O   2          G    200.00   3500.00 1800.00      1
 4.76869611e+00 3.89237905e-03-1.21382388e-06 1.92615394e-10-1.22582099e-14    2
-1.80900219e+04-5.11810217e-01 3.34774226e+00 7.05005427e-03-3.84521989e-06    3
 1.16720651e-09-1.47618087e-13-1.75784785e+04 7.17868844e+00                   4
HO2                     H   1O   2          G    200.00   3500.00  700.00      1
 3.02391888e+00 4.46390908e-03-2.23146492e-06 6.12710797e-10-6.64266231e-14    2
 3.99341610e+02 9.10699976e+00 3.61994300e+00 1.05805693e-03 5.06678968e-06    3
-6.33800787e-09 2.41597290e-12 3.15898233e+02 6.44411476e+00                   4
CO                      C   1O   1          G    200.00   3500.00  960.00      1
 2.79255380e+00 1.87486885e-03-8.59711900e-07 1.91200058e-10-1.67855270e-14    2
-1.41723335e+04 7.41443564e+00 3.75723893e+00-2.14465251e-03 5.42079022e-06    3
-4.17025975e-09 1.11901130e-12-1.43575530e+04 2.79976793e+00                   4
CO2                     C   1O   2          G    200.00   3500.00 1450.00      1
 4.70876459e+00 2.62914723e-03-9.30606601e-07 1.43892961e-10-7.62581847e-15    2
-4.90562638e+04-2.34976404e+00 2.31684348e+00 9.22755029e-03-7.75654080e-06    3
 3.28225351e-09-5.48722465e-13-4.83626067e+04 1.00786234e+01                   4
HOCO                    H   1C   1O   2     G    200.00   3500.00 1570.00      1
 5.88810551e+00 3.28985483e-03-9.88703679e-07 1.12295220e-10-2.32818091e-15    2
-2.40914384e+04-5.05613781e+00 2.36661498e+00 1.22618052e-02-9.56063081e-06    3
 3.75217935e-09-5.81927565e-13-2.29856904e+04 1.35214769e+01                   4
CH4                     C   1H   4          G    300.00   3500.00  700.00      1
 5.05346544e-01 1.23697842e-02-4.99807893e-06 1.04392755e-09-8.62897300e-14    2
-9.58982509e+03 1.61752768e+01 5.23967275e+00-1.46835084e-02 5.29732624e-05    3
-5.41668737e-08 1.96318536e-11-1.02526308e+04-4.97649490e+00                   4
CH3                     C   1H   3          G    300.00   3500.00 1060.00      1
 2.78805103e+00 6.15233479e-03-2.21179351e-06 3.74402654e-10-2.48151355e-14    2
 1.65862829e+04 5.77899820e+00 3.47829310e+00 3.54764774e-03 1.47408440e-06    3
-1.94375955e-09 5.21921234e-13 1.64399516e+04 2.40875956e+00                   4
CH2                     C   1H   2          G    300.00   3500.00 1800.00      1
 2.81272979e+00 3.55431373e-03-1.28768512e-06 2.21273711e-10-1.48738112e-14    2
 4.62073492e+04 6.64284613e+00 3.76489460e+00 1.43839193e-03 4.75583051e-07    3
-4.31788574e-10 7.58292840e-14 4.58645699e+04 1.48953154e+00                   4
CH2(S)                  C   1H   2          G    300.00   3500.00  970.00      1
 2.75934299e+00 3.65468308e-03-1.35589915e-06 2.74980416e-10-2.36795479e-14    2
 5.06429079e+04 6.11646385e+00 4.18185434e+00-2.21134310e-03 7.71527536e-06    3
-5.95950379e-09 1.58314628e-12 5.03669407e+04-7.03002562e-01                   4
C                       C   1               G    200.00   3500.00  700.00      1
 2.49472530e+00 3.92839623e-05-6.70015037e-08 3.71818699e-11-5.07306880e-15    2
 8.54504422e+04 4.79314257e+00 2.54495193e+00-2.47725357e-04 5.48018467e-07    3
-5.48551435e-10 2.04117397e-13 8.54434105e+04 4.56874269e+00                   4
CH                      C   1H   1          G    300.00   3500.00 1590.00      1
 2.27990133e+00 2.16985229e-03-7.07637823e-07 1.23973477e-10-9.56348334e-15    2
 7.11059412e+04 8.77326037e+00 3.77264331e+00-1.58547346e-03 2.83512232e-06    3
-1.36146054e-09 2.23995325e-13 7.06312492e+04 8.79407939e-01                   4
CH3O2H                  C   1H   4O   2     G    300.00   3500.00 1090.00      1
 7.33435504e+00 9.33238581e-03-3.40995754e-06 5.79327833e-10-3.79241273e-14    2
-1.81046373e+04-1.19553967e+01 7.70006816e-01 3.34217371e-02-3.65604409e-05    3
 2.08548529e-08-4.68827390e-12-1.66736094e+04 2.02794894e+01                   4
CH3O2                   C   1H   3O   2     G    300.00   3500.00 1800.00      1
 5.64141552e+00 8.74328811e-03-3.21961767e-06 5.43696238e-10-3.45016043e-14    2
-1.19010046e+03-3.41913229e+00 1.44289655e+00 1.80733303e-02-1.09946528e-05    3
 3.42333889e-09-4.34451972e-13 3.21366368e+02 1.93041283e+01                   4
CH3OH                   C   1H   4O   1     G    300.00   3500.00 1800.00      1
 2.71701641e+00 1.21538330e-02-5.02106867e-06 1.01068022e-09-8.18460330e-14    2
-2.57693414e+04 9.47419935e+00 8.47330413e-01 1.63086907e-02-8.48345015e-06    3
 2.29304373e-09-2.59952076e-13-2.50962544e+04 1.95933300e+01                   4
CH3O                    C   1H   3O   1     G    300.00   3500.00 1740.00      1
 5.72237859e+00 5.90228063e-03-1.80341022e-06 2.13335899e-10-5.61825765e-15    2
-7.86244706e+01-7.49172569e+00 8.89661124e-01 1.70119760e-02-1.13807338e-05    3
 3.88280853e-09-5.32841337e-13 1.60316121e+03 1.85001128e+01                   4
CH2OH                   C   1H   3O   1     G    300.00   3500.00 1360.00      1
 5.04534911e+00 6.02727160e-03-2.11386901e-06 3.36086164e-10-2.00987773e-14    2
-4.03584131e+03-1.57523866e+00 2.34821584e+00 1.39600165e-02-1.08632200e-05    3
 4.62498372e-09-8.08499063e-13-3.30222106e+03 1.22661975e+01                   4
CH2O                    C   1H   2O   1     G    300.00   3500.00  700.00      1
 1.33335656e+00 1.00905181e-02-5.12952546e-06 1.25425201e-09-1.19639101e-13    2
-1.39080170e+04 1.59916142e+01 4.32621275e+00-7.01151723e-03 3.15176932e-05    3
-3.36478610e-08 1.23454012e-11-1.43270169e+04 2.62028992e+00                   4
HCO                     C   1H   1O   1     G    200.00   3500.00  770.00      1
 2.60049318e+00 5.29278252e-03-2.69184204e-06 7.21357770e-10-7.43521372e-14    2
 4.05725330e+03 1.07450933e+01 4.03483982e+00-2.15836886e-03 1.18233879e-05    3
-1.18459409e-08 4.00593964e-12 3.83636392e+03 4.20008756e+00                   4
HO2CHO                  C   1H   2O   3     G    300.00   3500.00 1750.00      1
 1.00230822e+01 4.43559546e-03-1.56185376e-06 2.43414079e-10-1.38379679e-14    2
-3.81313379e+04-2.33591538e+01 2.47434347e+00 2.16898554e-02-1.63512194e-05    3
 5.87745813e-09-8.18701404e-13-3.54892793e+04 1.72835403e+01                   4
HOCHO                   H   2C   1O   2     G    200.00   3500.00 1800.00      1
 3.79473623e+00 8.42765802e-03-3.84722303e-06 8.63389995e-10-7.73674578e-14    2
-4.73118220e+04 5.12934093e+00 1.85206267e+00 1.27447104e-02-7.44476667e-06    3
 2.19581357e-09-2.62426287e-13-4.66124595e+04 1.56434955e+01                   4
OCHO                    C   1O   2H   1     G    200.00   3500.00  700.00      1
 2.58373953e+00 8.99565936e-03-4.55939784e-06 1.11902582e-09-1.07899897e-13    2
-1.67164582e+04 1.34890938e+01 4.25809176e+00-5.72067675e-04 1.59428744e-05    3
-1.84069477e-08 6.86566208e-12-1.69508675e+04 6.00851165e+00                   4
C2H6                    C   2H   6          G    300.00   3500.00 1800.00      1
 4.07959174e+00 1.57445255e-02-5.96197340e-06 1.06867166e-09-7.61012177e-14    2
-1.25948055e+04-1.43089592e+00-2.41778736e-01 2.53475710e-02-1.39645113e-05    3
 4.03257459e-09-4.87754402e-13-1.10391121e+04 2.19572626e+01                   4
C2H5                    C   2H   5          G    300.00   3500.00 1800.00      1
 5.19791696e+00 1.11042732e-02-3.71281218e-06 5.47664237e-10-2.89411242e-14    2
 1.17176203e+04-4.91384359e+00 6.75421537e-01 2.11542630e-02-1.20878037e-05    3
 3.64951295e-09-4.59753446e-13 1.33457186e+04 1.95628451e+01                   4
C2H5O2H                 C   2H   6O   2     G    300.00   3500.00 1450.00      1
 1.00876754e+01 1.40221795e-02-4.79127924e-06 7.15473842e-10-3.78163306e-14    2
-2.40669300e+04-2.56733607e+01-5.77204966e-01 4.34425392e-02-3.52261341e-05    3
 1.47085106e-08-2.45040887e-12-2.09741147e+04 2.97412033e+01                   4
C2H5O2                  C   2H   5O   2     G    300.00   3500.00 1480.00      1
 9.29919856e+00 1.29334585e-02-4.54028293e-06 7.01326950e-10-3.92077242e-14    2
-7.64002502e+03-2.14311828e+01 2.00183001e-01 3.75253925e-02-2.94645403e-05    3
 1.19284699e-08-1.93568458e-12-4.94671641e+03 2.60335046e+01                   4
C2H4                    C   2H   4          G    300.00   3500.00 1650.00      1
 4.60402750e+00 9.50595291e-03-3.15129224e-06 4.53051970e-10-2.23949056e-14    2
 3.97229090e+03-3.77421075e+00-6.02932966e-02 2.08133973e-02-1.34307871e-05    3
 4.60638323e-09-6.51687520e-13 5.51151677e+03 2.10642174e+01                   4
C2H3                    C   2H   3          G    300.00   3500.00 1450.00      1
 4.18728262e+00 7.47581866e-03-2.58984442e-06 4.05266469e-10-2.35023462e-14    2
 3.38403788e+04 1.51959352e+00 1.23421228e+00 1.56222196e-02-1.10171557e-05    3
 4.27989236e-09-6.91541292e-13 3.46967692e+04 1.68637042e+01                   4
C2H2                    C   2H   2          G    300.00   3500.00  790.00      1
 4.37267451e+00 5.47212841e-03-2.03181554e-06 3.75019163e-10-2.77049120e-14    2
 2.58626598e+04-2.43835909e+00 7.70536924e-01 2.37107997e-02-3.66622041e-05    3
 2.95989758e-08-9.27579245e-12 2.64317975e+04 1.40907683e+01                   4
C2H                     C   2H   1          G    300.00   3500.00 1710.00      1
 3.41788259e+00 4.21328984e-03-1.58936942e-06 2.68739179e-10-1.73346344e-14    2
 6.72874491e+04 5.32512356e+00 4.60873599e+00 1.42766785e-03 8.54158644e-07    3
-6.83903342e-10 1.21940588e-13 6.68801772e+04-1.05894068e+00                   4
C2H5OH                  C   2H   6O   1     G    300.00   3500.00 1580.00      1
 7.32490792e+00 1.39762984e-02-4.67366801e-06 6.82063840e-10-3.47025203e-14    2
-3.18909573e+04-1.38313053e+01-4.22291371e-01 3.35894612e-02-2.32937592e-05    3
 8.53864242e-09-1.27783204e-12-2.94428423e+04 2.70882144e+01                   4
C2H5O                   C   2H   5O   1     G    300.00   3500.00  700.00      1
 1.68957251e+00 2.35453826e-02-1.23415273e-05 3.08911892e-09-2.98016647e-13    2
-3.10347953e+03 1.69410915e+01 3.27852963e+00 1.44656276e-02 7.11509041e-06    3
-1.54409932e-08 6.31988055e-12-3.32593352e+03 9.84203310e+00                   4
PC2H4OH                 C   2H   5O   1     G    300.00   3500.00 1470.00      1
 7.18479728e+00 1.17471688e-02-4.06239662e-06 6.31554442e-10-3.61644761e-14    2
-6.24418465e+03-9.60110342e+00 1.82077783e+00 2.63431401e-02-1.89562449e-05    3
 7.38613415e-09-1.18490252e-12-4.66716293e+03 1.83437447e+01                   4
SC2H4OH                 C   2H   5O   1     G    300.00   3500.00 1500.00      1
 6.63757447e+00 1.19924580e-02-4.07718691e-06 6.22004854e-10-3.47507928e-14    2
-9.66525362e+03-7.65007915e+00 1.23305390e+00 2.64045128e-02-1.84892418e-05    3
 7.02736257e-09-1.10231041e-12-8.04389745e+03 2.06149530e+01                   4
C2H4O2H                 C   2H   5O   2     G    300.00   3500.00 1440.00      1
 9.66417590e+00 1.29483241e-02-4.44318413e-06 6.83406719e-10-3.84804652e-14    2
 1.86599146e+03-2.38806219e+01 2.23212425e+00 3.35929120e-02-2.59479632e-05    3
 1.06393230e-08-1.76693815e-12 4.00642233e+03 1.46847777e+01                   4
C2H4O1-2                C   2H   4O   1     G    300.00   3500.00 1520.00      1
 6.04215722e+00 1.11433665e-02-3.80167598e-06 5.65227352e-10-2.94248630e-14    2
-9.44151496e+03-1.02352874e+01-2.19672845e+00 3.28246446e-02-2.51976741e-05    3
 9.94943705e-09-1.57288040e-12-6.93689372e+03 3.29622800e+01                   4
C2H3O1-2                C   2H   3O   1     G    200.00   3500.00 1800.00      1
 7.60993641e+00 6.11300571e-03-1.59366922e-06 1.28294122e-10 2.98968411e-15    2
 1.61313301e+04-1.70584536e+01 7.34197611e-02 2.28608205e-02-1.55501815e-05    3
 5.29737275e-09-7.14937904e-13 1.88444761e+04 2.37307467e+01                   4
CH3CHO                  C   2H   4O   1     G    300.00   3500.00 1800.00      1
 6.22195717e+00 1.06589200e-02-3.75189849e-06 6.00730261e-10-3.66602428e-14    2
-2.30621368e+04-8.31410467e+00 9.75916365e-01 2.23167884e-02-1.34667889e-05    3
 4.19883781e-09-5.36397402e-13-2.11735621e+04 2.00785625e+01                   4
CH3CO                   C   2H   3O   1     G    300.00   3500.00 1800.00      1
 6.07689133e+00 8.12979100e-03-2.81854834e-06 4.38697836e-10-2.55171354e-14    2
-4.06801092e+03-6.15493095e+00 1.47388055e+00 1.83587038e-02-1.13426424e-05    3
 3.59576970e-09-4.63999338e-13-2.41092704e+03 1.87575236e+01                   4
CH2CHO                  C   2H   3O   1     G    300.00   3500.00 1340.00      1
 6.47703838e+00 7.91358487e-03-2.83605797e-06 4.62112353e-10-2.83230958e-14    2
-1.16170826e+03-8.37157531e+00 7.37868219e-01 2.50454361e-02-2.20135034e-05    3
 1.00031300e-08-1.80836370e-12 3.76389344e+02 2.09962839e+01                   4
CH2CO                   C   2H   2O   1     G    300.00   3500.00 1360.00      1
 5.69523630e+00 6.46841649e-03-2.33588407e-06 3.83408083e-10-2.36897816e-14    2
-8.05944305e+03-4.61154409e+00 2.49503978e+00 1.58807592e-02-1.27171444e-05    3
 5.47226118e-09-9.59140719e-13-7.18898960e+03 1.18115657e+01                   4
HCCO                    C   2H   1O   1     G    300.00   3500.00 1220.00      1
 5.81420551e+00 3.89116666e-03-1.41168512e-06 2.35668209e-10-1.49424599e-14    2
 1.94026781e+04-4.94089845e+00 3.33028657e+00 1.20351632e-02-1.14247956e-05    3
 5.70731328e-09-1.13618120e-12 2.00087543e+04 7.53650401e+00                   4
CH3CO3                  C   2H   3O   3     G    300.00   3500.00 1760.00      1
 1.40469371e+01 2.48483616e-03 1.65900305e-06-8.55133607e-10 9.82286856e-14    2
-2.73756812e+04-4.36816920e+01 2.64892556e+00 2.83894079e-02-2.04187569e-05    3
 7.50765427e-09-1.08966732e-12-2.33635811e+04 1.77505784e+01                   4
CH3CO3H                 C   2H   4O   3     G    300.00   3500.00 1240.00      1
 1.23807020e+01 1.08772141e-02-4.04888352e-06 6.94756538e-10-4.56573485e-14    2
-7.51809422e+04-3.74730284e+01-2.33886891e+00 5.83597007e-02-6.14873754e-05    3
 3.15756662e-08-6.27164719e-12-7.15304886e+04 3.67067395e+01                   4
CH2OHCHO                C   2H   4O   2     G    300.00   3500.00 1800.00      1
 8.91045191e+00 9.14305835e-03-2.53718679e-06 2.39203927e-10 8.50817753e-16    2
-4.09945451e+04-1.84179625e+01 1.56305394e+00 2.54706094e-02-1.61434793e-05    3
 5.27857153e-09-6.99061350e-13-3.83494818e+04 2.13476881e+01                   4
CHOCHO                  C   2H   2O   2     G    300.00   3500.00 1570.00      1
 9.97760190e+00 4.26981387e-03-1.12729558e-06 7.37812974e-11 5.98356282e-15    2
-2.96900175e+04-2.75230936e+01 7.08345804e-01 2.78857530e-02-2.36902947e-05    3
 9.65467265e-09-1.51963608e-12-2.67794711e+04 2.13768443e+01                   4
O2C2H4O2H               C   2H   5O   4     G    300.00   3500.00 1800.00      1
 1.24323233e+01 1.62358946e-02-6.84260441e-06 1.39267464e-09-1.12911160e-13    2
-1.87641101e+04-2.90906711e+01 5.81911533e+00 3.09319123e-02-1.90892858e-05    3
 5.92848256e-09-7.42884481e-13-1.63833552e+04 6.70138985e+00                   4
HO2CH2CHO               C   2H   4O   3     G    300.00   3500.00 1240.00      1
 1.23807020e+01 1.08772141e-02-4.04888352e-06 6.94756538e-10-4.56573485e-14    2
-7.51809422e+04-3.74730284e+01-2.33886891e+00 5.83597007e-02-6.14873754e-05    3
 3.15756662e-08-6.27164719e-12-7.15304886e+04 3.67067395e+01                   4
CH3OCHO                 C   2H   4O   2     G    300.00   3500.00  700.00      1
 5.02910653e+00-2.87377518e-02 6.15808969e-05-2.98073517e-08 4.29774801e-12    2
-4.07046731e+04 1.82412183e+01 3.04007016e-07-1.95406361e-09 4.40443198e-12    3
 2.88411173e-08-1.66481338e-11-4.00005982e+04 4.07099926e+01                   4
CH3OCO                  C   2H   3O   2     G    300.00   3500.00  730.00      1
 2.57527322e+00 2.11166692e-02-1.20149822e-05 3.14849391e-09-3.11411023e-13    2
-2.07588781e+04 1.60124233e+01 4.66126873e+00 9.68655681e-03 1.14715501e-05    3
-1.83003940e-08 7.03409854e-12-2.10634335e+04 6.60518603e+00                   4
C3H8                    C   3H   8          G    300.00   3500.00 1690.00      1
 8.33847138e+00 1.79340895e-02-5.80534794e-06 7.91037165e-10-3.43400666e-14    2
-1.70816238e+04-2.27461869e+01-1.38651279e+00 4.09518035e-02-2.62352716e-05    3
 8.85017865e-09-1.22652076e-12-1.37945792e+04 2.92742167e+01                   4
IC3H7                   C   3H   7          G    300.00   3500.00 1800.00      1
 6.05951179e+00 1.82035635e-02-6.54041412e-06 1.09272169e-09-7.13189609e-14    2