ELEMENTS
C H O N HE
END
SPECIES

N2	HE

!MID-CHAINS
 P-IC30H60-P_S P-IC30H60-P 

!unreactive LMW
 C3H6        IC4H10      C5H12       IC4H8       C5H10_2     
 IC6H10      IC9H18      IC15H30     IC30H60     

END

REACTIONS
END