ELEMENTS
C H O N HE
END
SPECIES

N2	HE

C2H4        
C3H8   
C3H6        
C4H6        
              
NC7H14  ! oil cuts    
C16H32  ! diesel cuts
C30H60  ! waxes cuts

! fake species required in OpenSMOKE++
P-C40H80-P_S    ! crystalline polymer 
P-C40H80-P      ! amorphous/molten polymer
            

END

REACTIONS
END
