THERMO
   300.0   1000.0   3000.0


N2                G 8/02N   2    0    0    0G   200.000  6000.00  1000.00      1
 2.95257637E+00 1.39690040E-03-4.92631603E-07 7.86010195E-11-4.60755204E-15    2
-9.23948688E+02 5.87188762E+00 3.53100528E+00-1.23660988E-04-5.02999433E-07    3
 2.43530612E-09-1.40881235E-12-1.04697628E+03 2.96747038E+00 0.00000000E+00    4

N2(L)             G 8/02N   2    0    0    0G   200.000  6000.00  1000.00      1
 2.95257637E+00 1.39690040E-03-4.92631603E-07 7.86010195E-11-4.60755204E-15    2
-9.23948688E+02 5.87188762E+00 3.53100528E+00-1.23660988E-04-5.02999433E-07    3
 2.43530612E-09-1.40881235E-12-1.04697628E+03 2.96747038E+00 0.00000000E+00    4

HE                      HE  1               G    200.00   3500.00  850.00      1
 2.50020615e+00-5.42576298e-07 4.63926302e-10-1.57302170e-13 1.82971406e-17    2
-7.45426807e+02 9.27648988e-01 2.49964853e+00 2.08151569e-06-4.16682427e-09    3
 3.47465907e-12-1.04992675e-15-7.45332012e+02 9.30248556e-01                   4

P-C21H42-P_S(L)         C  21H  42O   0N   0G    200.00   2000.00 1500.00      1
 2.08836123E+01-1.23522672E-01 1.19540322E-03-1.36132793E-06 4.46154537E-10    2
-8.31127422E+04-6.49622185E+01 2.08836123E+01-1.23522672E-01 1.19540322E-03    3
-1.36132793E-06 4.46154537E-10-8.31127422E+04-6.49622185E+01                   4 
P-C21H42-P_S            C  21H  42O   0N   0G    200.00   2000.00 1500.00      1
 2.08836123E+01-1.23522672E-01 1.19540322E-03-1.36132793E-06 4.46154537E-10    2
-8.31127422E+04-6.49622185E+01 2.08836123E+01-1.23522672E-01 1.19540322E-03    3
-1.36132793E-06 4.46154537E-10-8.31127422E+04-6.49622185E+01                   4 
P-C21H42-P(L)           C  21H  42O   0N   0G    200.00   2000.00 1829.31      1
 3.00975687E+01 1.84260678E-01-1.30651659E-04 5.78456718E-08-1.09880310E-11    2
-8.09382563E+04-1.28451358E+02 3.00975687E+01 1.84260678E-01-1.30651659E-04    3
 5.78456718E-08-1.09880310E-11-8.09382563E+04-1.28451358E+02                   4 
P-C21H42-P              C  21H  42O   0N   0G    200.00   2000.00 1829.31      1
 3.00975687E+01 1.84260678E-01-1.30651659E-04 5.78456718E-08-1.09880310E-11    2
-8.09382563E+04-1.28451358E+02 3.00975687E+01 1.84260678E-01-1.30651659E-04    3
 5.78456718E-08-1.09880310E-11-8.09382563E+04-1.28451358E+02                   4 
P-C21H41-P(L)           C  21H  41O   0N   0G    200.00   2000.00 1829.31      1
 3.13882929E+01 1.77128452E-01-1.24102074E-04 5.39290198E-08-9.93592295E-12    2
-5.78698957E+04-1.32874817E+02 3.13882929E+01 1.77128452E-01-1.24102074E-04    3
 5.39290198E-08-9.93592295E-12-5.78698957E+04-1.32874817E+02                   4 
P-C21H41-P              C  21H  41O   0N   0G    200.00   2000.00 1829.31      1
 3.13882929E+01 1.77128452E-01-1.24102074E-04 5.39290198E-08-9.93592295E-12    2
-5.78698957E+04-1.32874817E+02 3.13882929E+01 1.77128452E-01-1.24102074E-04    3
 5.39290198E-08-9.93592295E-12-5.78698957E+04-1.32874817E+02                   4 
P-C21H43(L)             C  21H  43O   0N   0G    200.00   2000.00 1829.31      1
 5.98181077E+02-3.62754922E+00 7.65066703E-03-5.88533945E-06 1.54446884E-09    2
-1.41439493E+05-2.58380681E+03 5.98181077E+02-3.62754922E+00 7.65066703E-03    3
-5.88533945E-06 1.54446884E-09-1.41439493E+05-2.58380681E+03                   4 
P-C21H43                C  21H  43O   0N   0G    200.00   2000.00 1829.31      1
 5.98181077E+02-3.62754922E+00 7.65066703E-03-5.88533945E-06 1.54446884E-09    2
-1.41439493E+05-2.58380681E+03 5.98181077E+02-3.62754922E+00 7.65066703E-03    3
-5.88533945E-06 1.54446884E-09-1.41439493E+05-2.58380681E+03                   4 
P-C21H41(L)             C  21H  41O   0N   0G    200.00   2000.00 1829.31      1
 6.13045089E+02-3.66698513E+00 7.67823216E-03-5.89256320E-06 1.54485975E-09    2
-1.30550478E+05-2.66278619E+03 6.13045089E+02-3.66698513E+00 7.67823216E-03    3
-5.89256320E-06 1.54485975E-09-1.30550478E+05-2.66278619E+03                   4 
P-C21H41                C  21H  41O   0N   0G    200.00   2000.00 1829.31      1
 6.13045089E+02-3.66698513E+00 7.67823216E-03-5.89256320E-06 1.54485975E-09    2
-1.30550478E+05-2.66278619E+03 6.13045089E+02-3.66698513E+00 7.67823216E-03    3
-5.89256320E-06 1.54485975E-09-1.30550478E+05-2.66278619E+03                   4 
P-C21H42(L)             C  21H  42O   0N   0G    200.00   2000.00 1829.31      1
 5.99471801E+02-3.63468144E+00 7.65721662E-03-5.88925610E-06 1.54552094E-09    2
-1.18371133E+05-2.58823027E+03 5.99471801E+02-3.63468144E+00 7.65721662E-03    3
-5.88925610E-06 1.54552094E-09-1.18371133E+05-2.58823027E+03                   4 
P-C21H42                C  21H  42O   0N   0G    200.00   2000.00 1829.31      1
 5.99471801E+02-3.63468144E+00 7.65721662E-03-5.88925610E-06 1.54552094E-09    2
-1.18371133E+05-2.58823027E+03 5.99471801E+02-3.63468144E+00 7.65721662E-03    3
-5.88925610E-06 1.54552094E-09-1.18371133E+05-2.58823027E+03                   4 
P-C21H40(L)             C  21H  40O   0N   0G    200.00   2000.00 1829.31      1
 6.14335814E+02-3.67411735E+00 7.68478174E-03-5.89647985E-06 1.54591186E-09    2
-1.07482117E+05-2.66720965E+03 6.14335814E+02-3.67411735E+00 7.68478174E-03    3
-5.89647985E-06 1.54591186E-09-1.07482117E+05-2.66720965E+03                   4 
P-C21H40                C  21H  40O   0N   0G    200.00   2000.00 1829.31      1
 6.14335814E+02-3.67411735E+00 7.68478174E-03-5.89647985E-06 1.54591186E-09    2
-1.07482117E+05-2.66720965E+03 6.14335814E+02-3.67411735E+00 7.68478174E-03    3
-5.89647985E-06 1.54591186E-09-1.07482117E+05-2.66720965E+03                   4 
CH4(L)                  C   1H   4O   0N   0G    200.00   2000.00 2000.00      1
 3.66775286E+00-2.63278749E-03 2.05103874E-05-1.73297690E-08 4.65239036E-12    2
-1.01361512E+04-1.45682596E+00 3.66775286E+00-2.63278749E-03 2.05103874E-05    3
-1.73297690E-08 4.65239036E-12-1.01361512E+04-1.45682596E+00                   4 
CH4                     C   1H   4O   0N   0G    200.00   2000.00 2000.00      1
 3.66775286E+00-2.63278749E-03 2.05103874E-05-1.73297690E-08 4.65239036E-12    2
-1.01361512E+04-1.45682596E+00 3.66775286E+00-2.63278749E-03 2.05103874E-05    3
-1.73297690E-08 4.65239036E-12-1.01361512E+04-1.45682596E+00                   4 
C2H6(L)                 C   2H   6O   0N   0G    200.00   2000.00  304.11      1
 1.32490112E+00 1.59917120E-02 4.20097262E-06-1.02544400E-08 3.42059504E-12    2
-1.12072447E+04 1.53081004E+01 1.98209766E+02-4.70989482E+00 4.23885481E-02    3
-1.63652556E-04 2.31987037E-07-2.06743173E+04-5.94982231E+02                   4 
C2H6                    C   2H   6O   0N   0G    200.00   2000.00  304.11      1
 1.32490112E+00 1.59917120E-02 4.20097262E-06-1.02544400E-08 3.42059504E-12    2
-1.12072447E+04 1.53081004E+01 1.32490112E+00 1.59917120E-02 4.20097262E-06    3
-1.02544400E-08 3.42059504E-12-1.12072447E+04 1.53081004E+01                   4 
C3H8(L)                 C   3H   8O   0N   0G    200.00   2000.00  383.81      1
 9.86741119E-01 2.89186335E-02-4.80804969E-06-7.15048163E-09 3.01820125E-12    2
-1.41260837E+04 1.86646638E+01 8.35244129E+01-1.68135050E+00 1.34289591E-02    3
-4.46464402E-05 5.39523655E-08-2.07093096E+04-2.56884286E+02                   4 
C3H8                    C   3H   8O   0N   0G    200.00   2000.00  383.81      1
 9.86741119E-01 2.89186335E-02-4.80804969E-06-7.15048163E-09 3.01820125E-12    2
-1.41260837E+04 1.86646638E+01 9.86741119E-01 2.89186335E-02-4.80804969E-06    3
-7.15048163E-09 3.01820125E-12-1.41260837E+04 1.86646638E+01                   4 
NC4H10(L)               C   4H  10O   0N   0G    200.00   2000.00 2000.00      1
 6.48581116E-01 4.18455549E-02-1.38170720E-05-4.04652328E-09 2.61580746E-12    2
-1.70449227E+04 2.20212272E+01 6.48581116E-01 4.18455549E-02-1.38170720E-05    3
-4.04652328E-09 2.61580746E-12-1.70449227E+04 2.20212272E+01                   4 
NC4H10                  C   4H  10O   0N   0G    200.00   2000.00 2000.00      1
 6.48581116E-01 4.18455549E-02-1.38170720E-05-4.04652328E-09 2.61580746E-12    2
-1.70449227E+04 2.20212272E+01 6.48581116E-01 4.18455549E-02-1.38170720E-05    3
-4.04652328E-09 2.61580746E-12-1.70449227E+04 2.20212272E+01                   4 
NC5H12(L)               C   5H  12O   0N   0G    200.00   2000.00 2000.00      1
 3.10421113E-01 5.47724764E-02-2.28260943E-05-9.42564927E-10 2.21341367E-12    2
-1.99637617E+04 2.53777906E+01 3.10421113E-01 5.47724764E-02-2.28260943E-05    3
-9.42564927E-10 2.21341367E-12-1.99637617E+04 2.53777906E+01                   4 
NC5H12                  C   5H  12O   0N   0G    200.00   2000.00 2000.00      1
 3.10421113E-01 5.47724764E-02-2.28260943E-05-9.42564927E-10 2.21341367E-12    2
-1.99637617E+04 2.53777906E+01 3.10421113E-01 5.47724764E-02-2.28260943E-05    3
-9.42564927E-10 2.21341367E-12-1.99637617E+04 2.53777906E+01                   4 
C2H4(L)                 C   2H   4O   0N   0G    200.00   2000.00  292.59      1
 5.52229738E-01 1.73771352E-02-7.04428529E-06-3.10197256E-10 6.99587116E-13    2
 5.44752973E+03 1.87631795E+01 3.46078095E+02-8.48234162E+00 7.84548491E-02    3
-3.12741500E-04 4.59203448E-07-1.08668772E+04-1.04513344E+03                   4 
C2H4                    C   2H   4O   0N   0G    200.00   2000.00  292.59      1
 5.52229738E-01 1.73771352E-02-7.04428529E-06-3.10197256E-10 6.99587116E-13    2
 5.44752973E+03 1.87631795E+01 5.52229738E-01 1.73771352E-02-7.04428529E-06    3
-3.10197256E-10 6.99587116E-13 5.44752973E+03 1.87631795E+01                   4 
C3H6(L)                 C   3H   6O   0N   0G    200.00   2000.00  398.41      1
 1.43451610E+00 2.29623781E-02-3.57660669E-06-5.98693905E-09 2.51118188E-12    2
 1.06782396E+03 1.73134202E+01 1.07680302E+02-2.12238826E+00 1.65710142E-02    3
-5.40197730E-05 6.39984834E-08-8.64381492E+03-3.44043059E+02                   4 
C3H6                    C   3H   6O   0N   0G    200.00   2000.00  398.41      1
 1.43451610E+00 2.29623781E-02-3.57660669E-06-5.98693905E-09 2.51118188E-12    2
 1.06782396E+03 1.73134202E+01 1.43451610E+00 2.29623781E-02-3.57660669E-06    3
-5.98693905E-09 2.51118188E-12 1.06782396E+03 1.73134202E+01                   4 
C4H8-1(L)               C   4H   8O   0N   0G    200.00   2000.00 2000.00      1
 7.70118981E-01 3.59316371E-02-1.23667953E-05-2.91838512E-09 2.06414488E-12    2
-1.74201636E+03 2.24545027E+01 7.70118981E-01 3.59316371E-02-1.23667953E-05    3
-2.91838512E-09 2.06414488E-12-1.74201636E+03 2.24545027E+01                   4 
C4H8-1                  C   4H   8O   0N   0G    200.00   2000.00 2000.00      1
 7.70118981E-01 3.59316371E-02-1.23667953E-05-2.91838512E-09 2.06414488E-12    2
-1.74201636E+03 2.24545027E+01 7.70118981E-01 3.59316371E-02-1.23667953E-05    3
-2.91838512E-09 2.06414488E-12-1.74201636E+03 2.24545027E+01                   4 
NC5H10(L)               C   5H  10O   0N   0G    200.00   2000.00 2000.00      1
 4.31958978E-01 4.88585586E-02-2.13758176E-05 1.85573232E-10 1.66175109E-12    2
-4.66085537E+03 2.58110661E+01 4.31958978E-01 4.88585586E-02-2.13758176E-05    3
 1.85573232E-10 1.66175109E-12-4.66085537E+03 2.58110661E+01                   4 
NC5H10                  C   5H  10O   0N   0G    200.00   2000.00 2000.00      1
 4.31958978E-01 4.88585586E-02-2.13758176E-05 1.85573232E-10 1.66175109E-12    2
-4.66085537E+03 2.58110661E+01 4.31958978E-01 4.88585586E-02-2.13758176E-05    3
 1.85573232E-10 1.66175109E-12-4.66085537E+03 2.58110661E+01                   4 
C4H6(L)                 C   4H   6O   0N   0G    200.00   2000.00  468.55      1
-3.02661718E+00 5.82168862E-02-6.45065203E-05 3.93573292E-08-9.59324783E-12    2
 1.18988641E+04 3.61114505E+01 8.47068119E+01-1.51454449E+00 1.09592197E-02    3
-3.20781614E-05 3.37706597E-08-1.32470061E+02-2.82344122E+02                   4 
C4H6                    C   4H   6O   0N   0G    200.00   2000.00  468.55      1
-3.02661718E+00 5.82168862E-02-6.45065203E-05 3.93573292E-08-9.59324783E-12    2
 1.18988641E+04 3.61114505E+01-3.02661718E+00 5.82168862E-02-6.45065203E-05    3
 3.93573292E-08-9.59324783E-12 1.18988641E+04 3.61114505E+01                   4 
LC5H8(L)                C   5H   8O   0N   0G    200.00   2000.00 2000.00      1
 5.53496843E-01 4.29446407E-02-1.99255408E-05 1.31371139E-09 1.11008850E-12    2
 1.06420510E+04 2.48580472E+01 5.53496843E-01 4.29446407E-02-1.99255408E-05    3
 1.31371139E-09 1.11008850E-12 1.06420510E+04 2.48580472E+01                   4 
LC5H8                   C   5H   8O   0N   0G    200.00   2000.00 2000.00      1
 5.53496843E-01 4.29446407E-02-1.99255408E-05 1.31371139E-09 1.11008850E-12    2
 1.06420510E+04 2.48580472E+01 5.53496843E-01 4.29446407E-02-1.99255408E-05    3
 1.31371139E-09 1.11008850E-12 1.06420510E+04 2.48580472E+01                   4 
C15H32(L)               C  15H  32O   0N   0G    200.00   2000.00  725.85      1
-3.07117892E+00 1.84041691E-01-1.12916317E-04 3.00970186E-08-1.81052422E-12    2
-4.91521519E+04 5.89434246E+01 2.71238045E+01-1.89115468E-01 1.84568087E-03    3
-4.05410294E-06 3.00893630E-09-6.03413642E+04-7.33602534E+01                   4 
C15H32                  C  15H  32O   0N   0G    200.00   2000.00  725.85      1
-3.07117892E+00 1.84041691E-01-1.12916317E-04 3.00970186E-08-1.81052422E-12    2
-4.91521519E+04 5.89434246E+01-3.07117892E+00 1.84041691E-01-1.12916317E-04    3
 3.00970186E-08-1.81052422E-12-4.91521519E+04 5.89434246E+01                   4 
C15H30(L)               C  15H  30O   0N   0G    200.00   2000.00  732.33      1
-2.94964105E+00 1.78127773E-01-1.11466041E-04 3.12251568E-08-2.36218681E-12    2
-3.38492455E+04 5.93767001E+01 3.28097963E+01-2.60554951E-01 2.18201800E-03    3
-4.72876779E-06 3.48955307E-09-4.74962936E+04-9.81686158E+01                   4 
C15H30                  C  15H  30O   0N   0G    200.00   2000.00  732.33      1
-2.94964105E+00 1.78127773E-01-1.11466041E-04 3.12251568E-08-2.36218681E-12    2
-3.38492455E+04 5.93767001E+01-2.94964105E+00 1.78127773E-01-1.11466041E-04    3
 3.12251568E-08-2.36218681E-12-3.38492455E+04 5.93767001E+01                   4 
C15H28(L)               C  15H  28O   0N   0G    200.00   2000.00  738.35      1
-2.82810319E+00 1.72213855E-01-1.10015764E-04 3.23532949E-08-2.91384939E-12    2
-1.85463392E+04 5.84236812E+01 3.82661344E+01-3.28229314E-01 2.49615358E-03    3
-5.35126473E-06 3.92746702E-09-3.46484353E+04-1.23559126E+02                   4 
C15H28                  C  15H  28O   0N   0G    200.00   2000.00  738.35      1
-2.82810319E+00 1.72213855E-01-1.10015764E-04 3.23532949E-08-2.91384939E-12    2
-1.85463392E+04 5.84236812E+01-2.82810319E+00 1.72213855E-01-1.10015764E-04    3
 3.23532949E-08-2.91384939E-12-1.85463392E+04 5.84236812E+01                   4 
C39H80(L)               C  39H  80O   0N   0G    200.00   2000.00  900.78      1
-1.11870190E+01 4.94287806E-01-3.29132853E-04 1.04592019E-07-1.14679752E-11    2
-1.19204288E+05 1.39500946E+02 1.60869789E+02-7.00383759E-01 3.37451843E-03    3
-5.10464803E-06 2.76594526E-09-1.63864819E+05-6.45497196E+02                   4 
C39H80                  C  39H  80O   0N   0G    200.00   2000.00  900.78      1
-1.11870190E+01 4.94287806E-01-3.29132853E-04 1.04592019E-07-1.14679752E-11    2
-1.19204288E+05 1.39500946E+02-1.11870190E+01 4.94287806E-01-3.29132853E-04    3
 1.04592019E-07-1.14679752E-11-1.19204288E+05 1.39500946E+02                   4 
C39H78(L)               C  39H  78O   0N   0G    200.00   2000.00  893.46      1
-1.10654811E+01 4.88373889E-01-3.27682576E-04 1.05720157E-07-1.20196377E-11    2
-1.03901382E+05 1.39934222E+02 1.73449224E+02-7.36741564E-01 3.48458059E-03    3
-5.35593929E-06 2.94529131E-09-1.52762320E+05-7.13544925E+02                   4 
C39H78                  C  39H  78O   0N   0G    200.00   2000.00  893.46      1
-1.10654811E+01 4.88373889E-01-3.27682576E-04 1.05720157E-07-1.20196377E-11    2
-1.03901382E+05 1.39934222E+02-1.10654811E+01 4.88373889E-01-3.27682576E-04    3
 1.05720157E-07-1.20196377E-11-1.03901382E+05 1.39934222E+02                   4 
C39H76(L)               C  39H  76O   0N   0G    200.00   2000.00  886.77      1
-1.09439433E+01 4.82459971E-01-3.26232299E-04 1.06848295E-07-1.25713003E-11    2
-8.85984756E+04 1.38981203E+02 1.85840869E+02-7.70546995E-01 3.58345875E-03    3
-5.58783005E-06 3.11302357E-09-1.41651323E+05-7.82312649E+02                   4 
C39H76                  C  39H  76O   0N   0G    200.00   2000.00  886.77      1
-1.09439433E+01 4.82459971E-01-3.26232299E-04 1.06848295E-07-1.25713003E-11    2
-8.85984756E+04 1.38981203E+02-1.09439433E+01 4.82459971E-01-3.26232299E-04    3
 1.06848295E-07-1.25713003E-11-8.85984756E+04 1.38981203E+02                   4 
C15H31(L)               C  15H  31O   0N   0G    200.00   2000.00  725.94      1
-2.31245862E+00 1.77597703E-01-1.06581361E-04 2.61684081E-08-7.49780673E-13    2
-2.59533574E+04 5.75797859E+01 2.78826554E+01-1.95559699E-01 1.85201595E-03    3
-4.05803155E-06 3.00999704E-09-3.71483815E+04-7.47325669E+01                   4 
C15H31                  C  15H  31O   0N   0G    200.00   2000.00  725.94      1
-2.31245862E+00 1.77597703E-01-1.06581361E-04 2.61684081E-08-7.49780673E-13    2
-2.59533574E+04 5.75797859E+01-2.31245862E+00 1.77597703E-01-1.06581361E-04    3
 2.61684081E-08-7.49780673E-13-2.59533574E+04 5.75797859E+01                   4 
C15H29(L)               C  15H  29O   0N   0G    200.00   2000.00  732.39      1
-2.19092075E+00 1.71683785E-01-1.05131084E-04 2.72965462E-08-1.30144326E-12    2
-1.06504511E+04 5.80130614E+01 3.35686494E+01-2.66999187E-01 2.18835309E-03    3
-4.73269640E-06 3.49061381E-09-2.43022719E+04-9.95395666E+01                   4 
C15H29                  C  15H  29O   0N   0G    200.00   2000.00  732.39      1
-2.19092075E+00 1.71683785E-01-1.05131084E-04 2.72965462E-08-1.30144326E-12    2
-1.06504511E+04 5.80130614E+01-2.19092075E+00 1.71683785E-01-1.05131084E-04    3
 2.72965462E-08-1.30144326E-12-1.06504511E+04 5.80130614E+01                   4 
C15H27(L)               C  15H  27O   0N   0G    200.00   2000.00  738.39      1
-2.06938289E+00 1.65769867E-01-1.03680807E-04 2.84246844E-08-1.85310584E-12    2
 4.65245529E+03 5.70600425E+01 3.90249894E+01-3.34673554E-01 2.50248868E-03    3
-5.35519334E-06 3.92852776E-09-1.14533547E+04-1.24928639E+02                   4 
C15H27                  C  15H  27O   0N   0G    200.00   2000.00  738.39      1
-2.06938289E+00 1.65769867E-01-1.03680807E-04 2.84246844E-08-1.85310584E-12    2
 4.65245529E+03 5.70600425E+01-2.06938289E+00 1.65769867E-01-1.03680807E-04    3
 2.84246844E-08-1.85310584E-12 4.65245529E+03 5.70600425E+01                   4 
C39H79(L)               C  39H  79O   0N   0G    200.00   2000.00  899.70      1
-1.04282987E+01 4.87843818E-01-3.22797896E-04 1.00663409E-07-1.04072316E-11    2
-9.60054938E+04 1.38137308E+02 1.60643117E+02-6.97397476E-01 3.36595751E-03    3
-5.11114487E-06 2.77744004E-09-1.40660085E+05-6.43553012E+02                   4 
C39H79                  C  39H  79O   0N   0G    200.00   2000.00  899.70      1
-1.04282987E+01 4.87843818E-01-3.22797896E-04 1.00663409E-07-1.04072316E-11    2
-9.60054938E+04 1.38137308E+02-1.04282987E+01 4.87843818E-01-3.22797896E-04    3
 1.00663409E-07-1.04072316E-11-9.60054938E+04 1.38137308E+02                   4 
C39H77(L)               C  39H  77O   0N   0G    200.00   2000.00  892.40      1
-1.03067608E+01 4.81929900E-01-3.21347619E-04 1.01791547E-07-1.09588942E-11    2
-8.07025875E+04 1.38570583E+02 1.73211139E+02-7.33603116E-01 3.47536787E-03    3
-5.36133141E-06 2.95614626E-09-1.29557069E+05-7.11558725E+02                   4 
C39H77                  C  39H  77O   0N   0G    200.00   2000.00  892.40      1
-1.03067608E+01 4.81929900E-01-3.21347619E-04 1.01791547E-07-1.09588942E-11    2
-8.07025875E+04 1.38570583E+02-1.03067608E+01 4.81929900E-01-3.21347619E-04    3
 1.01791547E-07-1.09588942E-11-8.07025875E+04 1.38570583E+02                   4 
C39H75(L)               C  39H  75O   0N   0G    200.00   2000.00  885.72      1
-1.01852230E+01 4.76015982E-01-3.19897342E-04 1.02919685E-07-1.15105568E-11    2
-6.53996811E+04 1.37617564E+02 1.85591471E+02-7.67257905E-01 3.57360187E-03    3
-5.59213252E-06 3.12324870E-09-1.18445559E+05-7.80284103E+02                   4 
C39H75                  C  39H  75O   0N   0G    200.00   2000.00  885.72      1
-1.01852230E+01 4.76015982E-01-3.19897342E-04 1.02919685E-07-1.15105568E-11    2
-6.53996811E+04 1.37617564E+02-1.01852230E+01 4.76015982E-01-3.19897342E-04    3
 1.02919685E-07-1.15105568E-11-6.53996811E+04 1.37617564E+02                   4 
END