ELEMENTS
C H O N HE
END
SPECIES

N2	HE

!MID-CHAINS
 P-PS-P      

!unreactive LMW
 C6H5C2H3    C16H16      C15H16      C24H24      C16H14      
 

END

REACTIONS
END